bivalirudin
     RDKit          3D

293298  0  0  1  0  0  0  0  0999 V2000
  -40.0666  -45.8497    3.5339 N   0  0  0  0  0  0  0  0  0  0  0  0
  -39.9762  -45.9434    2.2653 C   0  0  0  0  0  0  0  0  0  0  0  0
  -40.8873  -46.7372    1.8426 N   0  0  0  0  0  0  0  0  0  0  0  0
  -39.1042  -45.2926    1.4601 N   0  0  0  0  0  0  0  0  0  0  0  0
  -39.2595  -44.9984    0.0458 C   0  0  0  0  0  0  0  0  0  0  0  0
  -38.2126  -43.9188   -0.4560 C   0  0  0  0  0  0  0  0  0  0  0  0
  -38.0522  -43.6922   -2.0170 C   0  0  0  0  0  0  0  0  0  0  0  0
  -38.8010  -42.4784   -2.6752 C   0  0  0  0  0  0  0  0  0  0  0  0
  -40.2303  -42.4674   -2.4773 N   0  0  0  0  0  0  0  0  0  0  0  0
  -40.9351  -41.8102   -1.4988 C   0  0  0  0  0  0  0  0  0  0  0  0
  -40.3433  -41.2696   -0.5329 O   0  0  0  0  0  0  0  0  0  0  0  0
  -42.4239  -41.6888   -1.6504 C   0  0  0  0  0  0  0  0  0  0  0  0
  -43.1744  -40.6522   -0.7622 C   0  0  0  0  0  0  0  0  0  0  0  0
  -44.6402  -41.1874   -0.7205 C   0  0  0  0  0  0  0  0  0  0  0  0
  -44.6443  -42.4856   -1.5680 C   0  0  0  0  0  0  0  0  0  0  0  0
  -43.2711  -42.8253   -1.3951 N   0  0  0  0  0  0  0  0  0  0  0  0
  -42.9677  -43.9201   -0.6590 C   0  0  0  0  0  0  0  0  0  0  0  0
  -42.3301  -43.6678    0.3899 O   0  0  0  0  0  0  0  0  0  0  0  0
  -43.5877  -45.2721   -0.8790 C   0  0  0  0  0  0  0  0  0  0  0  0
  -44.6074  -45.4135    0.1788 N   0  0  0  0  0  0  0  0  0  0  0  0
  -42.5447  -46.4313   -0.7563 C   0  0  0  0  0  0  0  0  0  0  0  0
  -43.0512  -47.7628   -0.2670 C   0  0  0  0  0  0  0  0  0  0  0  0
  -43.1796  -48.7841   -1.2186 C   0  0  0  0  0  0  0  0  0  0  0  0
  -43.6980  -50.0317   -0.8469 C   0  0  0  0  0  0  0  0  0  0  0  0
  -44.0528  -50.3487    0.4726 C   0  0  0  0  0  0  0  0  0  0  0  0
  -43.8466  -49.3831    1.4627 C   0  0  0  0  0  0  0  0  0  0  0  0
  -43.3961  -48.1027    1.0873 C   0  0  0  0  0  0  0  0  0  0  0  0
  -38.5260  -42.5195   -4.1484 C   0  0  0  0  0  0  0  0  0  0  0  0
  -38.4482  -43.6659   -4.6681 O   0  0  0  0  0  0  0  0  0  0  0  0
  -38.3467  -41.4472   -5.0035 N   0  0  0  0  0  0  0  0  0  0  0  0
  -37.5848  -41.6030   -6.2062 C   0  0  0  0  0  0  0  0  0  0  0  0
  -38.5797  -41.1460   -7.2667 C   0  0  0  0  0  0  0  0  0  0  0  0
  -39.5181  -40.2153   -6.4840 C   0  0  0  0  0  0  0  0  0  0  0  0
  -38.9813  -40.1562   -5.0321 C   0  0  0  0  0  0  0  0  0  0  0  0
  -40.0020  -39.7433   -4.0291 C   0  0  0  0  0  0  0  0  0  0  0  0
  -41.2358  -39.8090   -4.2661 O   0  0  0  0  0  0  0  0  0  0  0  0
  -39.5316  -39.1696   -2.8892 N   0  0  0  0  0  0  0  0  0  0  0  0
  -40.3141  -38.4177   -1.9688 C   0  0  0  0  0  0  0  0  0  0  0  0
  -39.5590  -37.9532   -0.7996 C   0  0  0  0  0  0  0  0  0  0  0  0
  -38.3988  -38.3852   -0.5808 O   0  0  0  0  0  0  0  0  0  0  0  0
  -40.1738  -37.0540    0.0055 N   0  0  0  0  0  0  0  0  0  0  0  0
  -39.5744  -36.5241    1.1784 C   0  0  0  0  0  0  0  0  0  0  0  0
  -40.3829  -35.5519    1.9147 C   0  0  0  0  0  0  0  0  0  0  0  0
  -41.5240  -35.2121    1.5130 O   0  0  0  0  0  0  0  0  0  0  0  0
  -39.8066  -35.0676    3.0362 N   0  0  0  0  0  0  0  0  0  0  0  0
  -40.4200  -34.1263    3.8988 C   0  0  0  0  0  0  0  0  0  0  0  0
  -39.6053  -33.7464    5.0549 C   0  0  0  0  0  0  0  0  0  0  0  0
  -38.4420  -34.1935    5.2173 O   0  0  0  0  0  0  0  0  0  0  0  0
  -40.2065  -32.8953    5.9118 N   0  0  0  0  0  0  0  0  0  0  0  0
  -39.6115  -32.3996    7.0996 C   0  0  0  0  0  0  0  0  0  0  0  0
  -40.5057  -31.5528    7.8919 C   0  0  0  0  0  0  0  0  0  0  0  0
  -41.7273  -31.4453    7.6232 O   0  0  0  0  0  0  0  0  0  0  0  0
  -39.9301  -30.8745    8.9120 N   0  0  0  0  0  0  0  0  0  0  0  0
  -40.5889  -29.8962    9.7191 C   0  0  0  0  0  0  0  0  0  0  0  0
  -39.7679  -29.6064   10.9982 C   0  0  0  0  0  0  0  0  0  0  0  0
  -39.6252  -30.7408   11.9260 C   0  0  0  0  0  0  0  0  0  0  0  0
  -38.4838  -31.1788   12.1868 O   0  0  0  0  0  0  0  0  0  0  0  0
  -40.6931  -31.3091   12.5135 N   0  0  0  0  0  0  0  0  0  0  0  0
  -40.7668  -28.6506    8.9291 C   0  0  0  0  0  0  0  0  0  0  0  0
  -39.7990  -28.1901    8.2711 O   0  0  0  0  0  0  0  0  0  0  0  0
  -41.9929  -28.0637    8.9120 N   0  0  0  0  0  0  0  0  0  0  0  0
  -42.3678  -26.9355    8.1221 C   0  0  0  0  0  0  0  0  0  0  0  0
  -43.7635  -26.5327    8.3521 C   0  0  0  0  0  0  0  0  0  0  0  0
  -44.6032  -27.3882    8.7230 O   0  0  0  0  0  0  0  0  0  0  0  0
  -44.1094  -25.2245    8.1835 N   0  0  0  0  0  0  0  0  0  0  0  0
  -45.3864  -24.6550    8.5229 C   0  0  0  0  0  0  0  0  0  0  0  0
  -45.3858  -24.2234   10.0218 C   0  0  0  0  0  0  0  0  0  0  0  0
  -45.1635  -25.2526   11.0456 C   0  0  0  0  0  0  0  0  0  0  0  0
  -44.1712  -25.1615   11.8009 O   0  0  0  0  0  0  0  0  0  0  0  0
  -46.0323  -26.2736   11.2126 O   0  0  0  0  0  0  0  0  0  0  0  0
  -45.7043  -23.5196    7.6057 C   0  0  0  0  0  0  0  0  0  0  0  0
  -46.1379  -22.4210    8.0386 O   0  0  0  0  0  0  0  0  0  0  0  0
  -45.5623  -23.6759    6.2529 N   0  0  0  0  0  0  0  0  0  0  0  0
  -45.8955  -22.6984    5.2553 C   0  0  0  0  0  0  0  0  0  0  0  0
  -44.9993  -21.4279    5.3606 C   0  0  0  0  0  0  0  0  0  0  0  0
  -45.2850  -20.2189    4.5394 C   0  0  0  0  0  0  0  0  0  0  0  0
  -44.2995  -19.2030    4.5246 C   0  0  0  0  0  0  0  0  0  0  0  0
  -44.5011  -18.0217    3.7898 C   0  0  0  0  0  0  0  0  0  0  0  0
  -45.6730  -17.8363    3.0404 C   0  0  0  0  0  0  0  0  0  0  0  0
  -46.6612  -18.8350    3.0431 C   0  0  0  0  0  0  0  0  0  0  0  0
  -46.4708  -20.0180    3.7846 C   0  0  0  0  0  0  0  0  0  0  0  0
  -45.8209  -23.3507    3.9228 C   0  0  0  0  0  0  0  0  0  0  0  0
  -44.7777  -23.2848    3.2238 O   0  0  0  0  0  0  0  0  0  0  0  0
  -46.9245  -24.0076    3.4583 N   0  0  0  0  0  0  0  0  0  0  0  0
  -47.1109  -24.4537    2.1116 C   0  0  0  0  0  0  0  0  0  0  0  0
  -48.1926  -25.5400    1.9842 C   0  0  0  0  0  0  0  0  0  0  0  0
  -47.9576  -26.9017    2.6524 C   0  0  0  0  0  0  0  0  0  0  0  0
  -49.0855  -27.8216    2.4247 C   0  0  0  0  0  0  0  0  0  0  0  0
  -49.0327  -28.9600    2.9369 O   0  0  0  0  0  0  0  0  0  0  0  0
  -50.1808  -27.4960    1.6862 O   0  0  0  0  0  0  0  0  0  0  0  0
  -47.5257  -23.2714    1.3197 C   0  0  0  0  0  0  0  0  0  0  0  0
  -48.7244  -22.9256    1.1557 O   0  0  0  0  0  0  0  0  0  0  0  0
  -46.5332  -22.5171    0.8130 N   0  0  0  0  0  0  0  0  0  0  0  0
  -46.6984  -21.3569    0.0135 C   0  0  0  0  0  0  0  0  0  0  0  0
  -45.2724  -20.8158   -0.1718 C   0  0  0  0  0  0  0  0  0  0  0  0
  -44.4458  -20.2322    0.9798 C   0  0  0  0  0  0  0  0  0  0  0  0
  -43.1137  -19.8854    0.4791 C   0  0  0  0  0  0  0  0  0  0  0  0
  -42.0839  -20.2311    1.0964 O   0  0  0  0  0  0  0  0  0  0  0  0
  -42.9862  -19.2201   -0.6842 O   0  0  0  0  0  0  0  0  0  0  0  0
  -47.2854  -21.7034   -1.3145 C   0  0  0  0  0  0  0  0  0  0  0  0
  -46.6167  -22.4428   -2.0769 O   0  0  0  0  0  0  0  0  0  0  0  0
  -48.5230  -21.2359   -1.6964 N   0  0  0  0  0  0  0  0  0  0  0  0
  -49.1854  -21.4258   -2.9741 C   0  0  0  0  0  0  0  0  0  0  0  0
  -50.0917  -22.7373   -2.9976 C   0  0  0  0  0  0  0  0  0  0  0  0
  -50.9348  -22.9578   -4.2897 C   0  0  0  0  0  0  0  0  0  0  0  0
  -49.3950  -24.0725   -2.5820 C   0  0  0  0  0  0  0  0  0  0  0  0
  -48.2300  -24.6927   -3.3830 C   0  0  0  0  0  0  0  0  0  0  0  0
  -49.9569  -20.1659   -3.2807 C   0  0  0  0  0  0  0  0  0  0  0  0
  -51.2056  -20.2458   -3.1239 O   0  0  0  0  0  0  0  0  0  0  0  0
  -49.4655  -18.9318   -3.7112 N   0  0  0  0  0  0  0  0  0  0  0  0
  -50.3635  -17.9302   -4.2164 C   0  0  0  0  0  0  0  0  0  0  0  0
  -50.0232  -16.7123   -3.3676 C   0  0  0  0  0  0  0  0  0  0  0  0
  -48.5552  -16.9640   -3.0040 C   0  0  0  0  0  0  0  0  0  0  0  0
  -48.1598  -18.3193   -3.6432 C   0  0  0  0  0  0  0  0  0  0  0  0
  -46.9829  -18.9619   -3.0025 C   0  0  0  0  0  0  0  0  0  0  0  0
  -46.5735  -18.6093   -1.8681 O   0  0  0  0  0  0  0  0  0  0  0  0
  -46.2577  -19.8300   -3.7723 N   0  0  0  0  0  0  0  0  0  0  0  0
  -44.8689  -20.1482   -3.6209 C   0  0  0  0  0  0  0  0  0  0  0  0
  -44.5502  -21.4043   -4.4669 C   0  0  0  0  0  0  0  0  0  0  0  0
  -43.1015  -21.9249   -4.3174 C   0  0  0  0  0  0  0  0  0  0  0  0
  -42.7548  -23.0706   -5.1676 C   0  0  0  0  0  0  0  0  0  0  0  0
  -41.5864  -23.5123   -5.1140 O   0  0  0  0  0  0  0  0  0  0  0  0
  -43.6411  -23.6668   -6.0024 O   0  0  0  0  0  0  0  0  0  0  0  0
  -44.0647  -18.9429   -3.9318 C   0  0  0  0  0  0  0  0  0  0  0  0
  -43.5807  -18.7713   -5.0774 O   0  0  0  0  0  0  0  0  0  0  0  0
  -43.9128  -17.9925   -2.9558 N   0  0  0  0  0  0  0  0  0  0  0  0
  -43.1906  -16.7674   -3.0643 C   0  0  0  0  0  0  0  0  0  0  0  0
  -43.8727  -15.9335   -4.1829 C   0  0  0  0  0  0  0  0  0  0  0  0
  -43.0352  -14.8284   -4.8404 C   0  0  0  0  0  0  0  0  0  0  0  0
  -43.7901  -14.0506   -5.8349 C   0  0  0  0  0  0  0  0  0  0  0  0
  -43.2608  -13.0453   -6.3535 O   0  0  0  0  0  0  0  0  0  0  0  0
  -45.0452  -14.3546   -6.2340 O   0  0  0  0  0  0  0  0  0  0  0  0
  -43.1847  -16.0934   -1.7364 C   0  0  0  0  0  0  0  0  0  0  0  0
  -43.8830  -15.0658   -1.5388 O   0  0  0  0  0  0  0  0  0  0  0  0
  -42.3922  -16.5557   -0.7122 N   0  0  0  0  0  0  0  0  0  0  0  0
  -42.2312  -15.8707    0.5278 C   0  0  0  0  0  0  0  0  0  0  0  0
  -41.6868  -16.7044    1.7217 C   0  0  0  0  0  0  0  0  0  0  0  0
  -41.5667  -15.9904    3.0365 C   0  0  0  0  0  0  0  0  0  0  0  0
  -42.1358  -14.7096    3.2755 C   0  0  0  0  0  0  0  0  0  0  0  0
  -41.9157  -14.0181    4.4734 C   0  0  0  0  0  0  0  0  0  0  0  0
  -41.1892  -14.6264    5.5061 C   0  0  0  0  0  0  0  0  0  0  0  0
  -40.9943  -13.9543    6.6637 O   0  0  0  0  0  0  0  0  0  0  0  0
  -40.6829  -15.9275    5.3316 C   0  0  0  0  0  0  0  0  0  0  0  0
  -40.8567  -16.5991    4.1027 C   0  0  0  0  0  0  0  0  0  0  0  0
  -41.3415  -14.7282    0.2183 C   0  0  0  0  0  0  0  0  0  0  0  0
  -40.1367  -14.9326   -0.0754 O   0  0  0  0  0  0  0  0  0  0  0  0
  -41.8773  -13.4804    0.2071 N   0  0  0  0  0  0  0  0  0  0  0  0
  -41.1646  -12.2892   -0.1142 C   0  0  0  0  0  0  0  0  0  0  0  0
  -41.7705  -11.6805   -1.3917 C   0  0  0  0  0  0  0  0  0  0  0  0
  -41.6305  -12.4608   -2.7082 C   0  0  0  0  0  0  0  0  0  0  0  0
  -40.1976  -12.7109   -3.2055 C   0  0  0  0  0  0  0  0  0  0  0  0
  -42.3141  -11.5476   -3.7113 C   0  0  0  0  0  0  0  0  0  0  0  0
  -41.1955  -11.3715    1.0394 C   0  0  0  0  0  0  0  0  0  0  0  0
  -40.7099  -11.7576    2.1263 O   0  0  0  0  0  0  0  0  0  0  0  0
  -41.6772  -10.1051    0.9830 O   0  0  0  0  0  0  0  0  0  0  0  0
  -39.5658  -45.2935    4.0457 H   0  0  0  0  0  0  0  0  0  0  0  0
  -41.7933  -46.3802    1.8459 H   0  0  0  0  0  0  0  0  0  0  0  0
  -40.6517  -47.5699    1.4007 H   0  0  0  0  0  0  0  0  0  0  0  0
  -38.3356  -44.9486    1.8991 H   0  0  0  0  0  0  0  0  0  0  0  0
  -40.2272  -44.5707   -0.2430 H   0  0  0  0  0  0  0  0  0  0  0  0
  -39.1368  -45.9109   -0.5428 H   0  0  0  0  0  0  0  0  0  0  0  0
  -38.3741  -42.9479    0.0310 H   0  0  0  0  0  0  0  0  0  0  0  0
  -37.2501  -44.2555   -0.0875 H   0  0  0  0  0  0  0  0  0  0  0  0
  -38.4445  -44.6046   -2.4696 H   0  0  0  0  0  0  0  0  0  0  0  0
  -36.9827  -43.6654   -2.2899 H   0  0  0  0  0  0  0  0  0  0  0  0
  -38.3639  -41.5661   -2.2600 H   0  0  0  0  0  0  0  0  0  0  0  0
  -40.7637  -42.9151   -3.1540 H   0  0  0  0  0  0  0  0  0  0  0  0
  -42.5731  -41.3961   -2.7030 H   0  0  0  0  0  0  0  0  0  0  0  0
  -43.1290  -39.6436   -1.1805 H   0  0  0  0  0  0  0  0  0  0  0  0
  -42.7528  -40.6093    0.2515 H   0  0  0  0  0  0  0  0  0  0  0  0
  -45.3699  -40.4849   -1.1152 H   0  0  0  0  0  0  0  0  0  0  0  0
  -44.9260  -41.3953    0.3211 H   0  0  0  0  0  0  0  0  0  0  0  0
  -45.3888  -43.1757   -1.1691 H   0  0  0  0  0  0  0  0  0  0  0  0
  -44.8834  -42.3460   -2.6285 H   0  0  0  0  0  0  0  0  0  0  0  0
  -44.0929  -45.3041   -1.8627 H   0  0  0  0  0  0  0  0  0  0  0  0
  -45.0294  -46.3332    0.0749 H   0  0  0  0  0  0  0  0  0  0  0  0
  -45.3523  -44.7398    0.0235 H   0  0  0  0  0  0  0  0  0  0  0  0
  -41.9150  -46.5029   -1.6452 H   0  0  0  0  0  0  0  0  0  0  0  0
  -41.8440  -46.0791   -0.0656 H   0  0  0  0  0  0  0  0  0  0  0  0
  -42.9000  -48.6519   -2.1959 H   0  0  0  0  0  0  0  0  0  0  0  0
  -43.8390  -50.7243   -1.5638 H   0  0  0  0  0  0  0  0  0  0  0  0
  -44.4761  -51.2576    0.6934 H   0  0  0  0  0  0  0  0  0  0  0  0
  -44.0469  -49.6114    2.4451 H   0  0  0  0  0  0  0  0  0  0  0  0
  -43.3238  -47.4488    1.8574 H   0  0  0  0  0  0  0  0  0  0  0  0
  -37.3532  -42.6575   -6.3557 H   0  0  0  0  0  0  0  0  0  0  0  0
  -36.7422  -40.9115   -6.2134 H   0  0  0  0  0  0  0  0  0  0  0  0
  -39.1420  -42.0055   -7.6317 H   0  0  0  0  0  0  0  0  0  0  0  0
  -38.0446  -40.6439   -8.0726 H   0  0  0  0  0  0  0  0  0  0  0  0
  -40.5251  -40.6324   -6.4823 H   0  0  0  0  0  0  0  0  0  0  0  0
  -39.5264  -39.2038   -6.8900 H   0  0  0  0  0  0  0  0  0  0  0  0
  -38.2278  -39.3546   -5.0148 H   0  0  0  0  0  0  0  0  0  0  0  0
  -38.5769  -39.2252   -2.7215 H   0  0  0  0  0  0  0  0  0  0  0  0
  -41.1625  -39.0171   -1.6388 H   0  0  0  0  0  0  0  0  0  0  0  0
  -40.8359  -37.5974   -2.4617 H   0  0  0  0  0  0  0  0  0  0  0  0
  -41.0668  -36.7530   -0.2300 H   0  0  0  0  0  0  0  0  0  0  0  0
  -39.2932  -37.3407    1.8434 H   0  0  0  0  0  0  0  0  0  0  0  0
  -38.5858  -36.1202    0.9600 H   0  0  0  0  0  0  0  0  0  0  0  0
  -38.9195  -35.3870    3.2687 H   0  0  0  0  0  0  0  0  0  0  0  0
  -41.3775  -34.5181    4.2421 H   0  0  0  0  0  0  0  0  0  0  0  0
  -40.7611  -33.2490    3.3492 H   0  0  0  0  0  0  0  0  0  0  0  0
  -41.1046  -32.5966    5.6952 H   0  0  0  0  0  0  0  0  0  0  0  0
  -39.2672  -33.2349    7.7094 H   0  0  0  0  0  0  0  0  0  0  0  0
  -38.6627  -31.9029    6.8968 H   0  0  0  0  0  0  0  0  0  0  0  0
  -38.9840  -31.0255    9.0686 H   0  0  0  0  0  0  0  0  0  0  0  0
  -41.5656  -30.2837   10.0308 H   0  0  0  0  0  0  0  0  0  0  0  0
  -40.2043  -28.7583   11.5257 H   0  0  0  0  0  0  0  0  0  0  0  0
  -38.7778  -29.2960   10.6643 H   0  0  0  0  0  0  0  0  0  0  0  0
  -40.5716  -32.0437   13.1372 H   0  0  0  0  0  0  0  0  0  0  0  0
  -41.5882  -30.9912   12.3154 H   0  0  0  0  0  0  0  0  0  0  0  0
  -42.6754  -28.4578    9.4779 H   0  0  0  0  0  0  0  0  0  0  0  0
  -42.2259  -27.1677    7.0666 H   0  0  0  0  0  0  0  0  0  0  0  0
  -41.6752  -26.1024    8.2418 H   0  0  0  0  0  0  0  0  0  0  0  0
  -43.4321  -24.6252    7.8294 H   0  0  0  0  0  0  0  0  0  0  0  0
  -46.1797  -25.3937    8.3720 H   0  0  0  0  0  0  0  0  0  0  0  0
  -46.3054  -23.6822   10.2445 H   0  0  0  0  0  0  0  0  0  0  0  0
  -44.5690  -23.5077   10.1153 H   0  0  0  0  0  0  0  0  0  0  0  0
  -45.8820  -26.9351   11.9222 H   0  0  0  0  0  0  0  0  0  0  0  0
  -45.2214  -24.5294    5.9413 H   0  0  0  0  0  0  0  0  0  0  0  0
  -46.9295  -22.3901    5.4375 H   0  0  0  0  0  0  0  0  0  0  0  0
  -44.8979  -21.1407    6.4072 H   0  0  0  0  0  0  0  0  0  0  0  0
  -43.9718  -21.7177    5.1408 H   0  0  0  0  0  0  0  0  0  0  0  0
  -43.4191  -19.3011    5.0422 H   0  0  0  0  0  0  0  0  0  0  0  0
  -43.7925  -17.2945    3.8024 H   0  0  0  0  0  0  0  0  0  0  0  0
  -45.8014  -16.9822    2.4924 H   0  0  0  0  0  0  0  0  0  0  0  0
  -47.5153  -18.7032    2.4975 H   0  0  0  0  0  0  0  0  0  0  0  0
  -47.2117  -20.7206    3.7554 H   0  0  0  0  0  0  0  0  0  0  0  0
  -47.6679  -24.1152    4.0709 H   0  0  0  0  0  0  0  0  0  0  0  0
  -46.1795  -24.8686    1.7067 H   0  0  0  0  0  0  0  0  0  0  0  0
  -49.1521  -25.1370    2.3081 H   0  0  0  0  0  0  0  0  0  0  0  0
  -48.2989  -25.7712    0.9243 H   0  0  0  0  0  0  0  0  0  0  0  0
  -47.8143  -26.7608    3.7237 H   0  0  0  0  0  0  0  0  0  0  0  0
  -47.0244  -27.3624    2.3284 H   0  0  0  0  0  0  0  0  0  0  0  0
  -50.9099  -28.1327    1.5583 H   0  0  0  0  0  0  0  0  0  0  0  0
  -45.6260  -22.7998    1.0169 H   0  0  0  0  0  0  0  0  0  0  0  0
  -47.3146  -20.6120    0.5250 H   0  0  0  0  0  0  0  0  0  0  0  0
  -45.2512  -20.1296   -1.0184 H   0  0  0  0  0  0  0  0  0  0  0  0
  -44.6881  -21.6483   -0.5640 H   0  0  0  0  0  0  0  0  0  0  0  0
  -44.9354  -19.3359    1.3607 H   0  0  0  0  0  0  0  0  0  0  0  0
  -44.3875  -20.8934    1.8444 H   0  0  0  0  0  0  0  0  0  0  0  0
  -42.1132  -19.0066   -1.0686 H   0  0  0  0  0  0  0  0  0  0  0  0
  -48.9991  -20.7030   -1.0414 H   0  0  0  0  0  0  0  0  0  0  0  0
  -48.4409  -21.5383   -3.7657 H   0  0  0  0  0  0  0  0  0  0  0  0
  -50.8568  -22.5982   -2.2259 H   0  0  0  0  0  0  0  0  0  0  0  0
  -51.5110  -23.8781   -4.1949 H   0  0  0  0  0  0  0  0  0  0  0  0
  -51.6139  -22.1166   -4.4283 H   0  0  0  0  0  0  0  0  0  0  0  0
  -50.2691  -23.0329   -5.1495 H   0  0  0  0  0  0  0  0  0  0  0  0
  -50.1519  -24.8338   -2.3931 H   0  0  0  0  0  0  0  0  0  0  0  0
  -48.9308  -23.8424   -1.6230 H   0  0  0  0  0  0  0  0  0  0  0  0
  -47.9105  -25.6175   -2.9025 H   0  0  0  0  0  0  0  0  0  0  0  0
  -48.5612  -24.9068   -4.3991 H   0  0  0  0  0  0  0  0  0  0  0  0
  -47.3959  -23.9917   -3.4128 H   0  0  0  0  0  0  0  0  0  0  0  0
  -51.3923  -18.2330   -4.0213 H   0  0  0  0  0  0  0  0  0  0  0  0
  -50.1161  -17.6946   -5.2514 H   0  0  0  0  0  0  0  0  0  0  0  0
  -50.6286  -16.7205   -2.4612 H   0  0  0  0  0  0  0  0  0  0  0  0
  -50.1794  -15.8055   -3.9519 H   0  0  0  0  0  0  0  0  0  0  0  0
  -48.4555  -17.0304   -1.9206 H   0  0  0  0  0  0  0  0  0  0  0  0
  -47.8958  -16.1912   -3.3992 H   0  0  0  0  0  0  0  0  0  0  0  0
  -47.7995  -18.0725   -4.6544 H   0  0  0  0  0  0  0  0  0  0  0  0
  -46.7049  -20.1870   -4.5547 H   0  0  0  0  0  0  0  0  0  0  0  0
  -44.6478  -20.4196   -2.6048 H   0  0  0  0  0  0  0  0  0  0  0  0
  -45.2503  -22.2003   -4.2135 H   0  0  0  0  0  0  0  0  0  0  0  0
  -44.7336  -21.1879   -5.5194 H   0  0  0  0  0  0  0  0  0  0  0  0
  -42.9116  -22.1761   -3.2739 H   0  0  0  0  0  0  0  0  0  0  0  0
  -42.3863  -21.1345   -4.5452 H   0  0  0  0  0  0  0  0  0  0  0  0
  -43.3712  -24.4330   -6.5477 H   0  0  0  0  0  0  0  0  0  0  0  0
  -44.3414  -18.1634   -2.1008 H   0  0  0  0  0  0  0  0  0  0  0  0
  -42.1569  -16.9998   -3.3376 H   0  0  0  0  0  0  0  0  0  0  0  0
  -44.8019  -15.5082   -3.8037 H   0  0  0  0  0  0  0  0  0  0  0  0
  -44.1408  -16.6092   -4.9951 H   0  0  0  0  0  0  0  0  0  0  0  0
  -42.6498  -14.1586   -4.0716 H   0  0  0  0  0  0  0  0  0  0  0  0
  -42.1242  -15.2263   -5.2873 H   0  0  0  0  0  0  0  0  0  0  0  0
  -45.4753  -13.7921   -6.9069 H   0  0  0  0  0  0  0  0  0  0  0  0
  -41.8608  -17.3499   -0.8533 H   0  0  0  0  0  0  0  0  0  0  0  0
  -43.2321  -15.5560    0.8324 H   0  0  0  0  0  0  0  0  0  0  0  0
  -42.2968  -17.5988    1.8484 H   0  0  0  0  0  0  0  0  0  0  0  0
  -40.6922  -17.0845    1.4885 H   0  0  0  0  0  0  0  0  0  0  0  0
  -42.7221  -14.2381    2.5889 H   0  0  0  0  0  0  0  0  0  0  0  0
  -42.2910  -13.0733    4.5866 H   0  0  0  0  0  0  0  0  0  0  0  0
  -40.4728  -14.5097    7.2800 H   0  0  0  0  0  0  0  0  0  0  0  0
  -40.1839  -16.3833    6.0994 H   0  0  0  0  0  0  0  0  0  0  0  0
  -40.4517  -17.5355    4.0046 H   0  0  0  0  0  0  0  0  0  0  0  0
  -42.8218  -13.3945    0.4269 H   0  0  0  0  0  0  0  0  0  0  0  0
  -40.1091  -12.4782   -0.3149 H   0  0  0  0  0  0  0  0  0  0  0  0
  -42.8206  -11.4446   -1.2191 H   0  0  0  0  0  0  0  0  0  0  0  0
  -41.2337  -10.7481   -1.5666 H   0  0  0  0  0  0  0  0  0  0  0  0
  -42.1585  -13.4115   -2.6330 H   0  0  0  0  0  0  0  0  0  0  0  0
  -40.2299  -13.2696   -4.1408 H   0  0  0  0  0  0  0  0  0  0  0  0
  -39.6982  -11.7561   -3.3697 H   0  0  0  0  0  0  0  0  0  0  0  0
  -39.6487  -13.2844   -2.4585 H   0  0  0  0  0  0  0  0  0  0  0  0
  -42.2776  -12.0030   -4.7010 H   0  0  0  0  0  0  0  0  0  0  0  0
  -43.3532  -11.3987   -3.4179 H   0  0  0  0  0  0  0  0  0  0  0  0
  -41.8018  -10.5857   -3.7348 H   0  0  0  0  0  0  0  0  0  0  0  0
  -41.6308   -9.5350    1.7753 H   0  0  0  0  0  0  0  0  0  0  0  0
  1  2  2  0
  2  3  1  0
  2  4  1  0
  4  5  1  0
  5  6  1  0
  6  7  1  0
  7  8  1  0
  8  9  1  0
  8 28  1  0
  9 10  1  0
 10 11  2  0
 10 12  1  0
 12 13  1  0
 12 16  1  0
 13 14  1  0
 14 15  1  0
 15 16  1  0
 16 17  1  0
 17 18  2  0
 17 19  1  0
 19 20  1  0
 19 21  1  0
 21 22  1  0
 22 23  2  0
 22 27  1  0
 23 24  1  0
 24 25  2  0
 25 26  1  0
 26 27  2  0
 28 29  2  0
 28 30  1  0
 30 31  1  0
 30 34  1  0
 31 32  1  0
 32 33  1  0
 33 34  1  0
 34 35  1  0
 35 36  2  0
 35 37  1  0
 37 38  1  0
 38 39  1  0
 39 40  2  0
 39 41  1  0
 41 42  1  0
 42 43  1  0
 43 44  2  0
 43 45  1  0
 45 46  1  0
 46 47  1  0
 47 48  2  0
 47 49  1  0
 49 50  1  0
 50 51  1  0
 51 52  2  0
 51 53  1  0
 53 54  1  0
 54 55  1  0
 54 59  1  0
 55 56  1  0
 56 57  2  0
 56 58  1  0
 59 60  2  0
 59 61  1  0
 61 62  1  0
 62 63  1  0
 63 64  2  0
 63 65  1  0
 65 66  1  0
 66 67  1  0
 66 71  1  0
 67 68  1  0
 68 69  2  0
 68 70  1  0
 71 72  2  0
 71 73  1  0
 73 74  1  0
 74 75  1  0
 74 82  1  0
 75 76  1  0
 76 77  2  0
 76 81  1  0
 77 78  1  0
 78 79  2  0
 79 80  1  0
 80 81  2  0
 82 83  2  0
 82 84  1  0
 84 85  1  0
 85 86  1  0
 85 91  1  0
 86 87  1  0
 87 88  1  0
 88 89  2  0
 88 90  1  0
 91 92  2  0
 91 93  1  0
 93 94  1  0
 94 95  1  0
 94100  1  0
 95 96  1  0
 96 97  1  0
 97 98  2  0
 97 99  1  0
100101  2  0
100102  1  0
102103  1  0
103104  1  0
103108  1  0
104105  1  0
104106  1  0
106107  1  0
108109  2  0
108110  1  0
110111  1  0
110114  1  0
111112  1  0
112113  1  0
113114  1  0
114115  1  0
115116  2  0
115117  1  0
117118  1  0
118119  1  0
118124  1  0
119120  1  0
120121  1  0
121122  2  0
121123  1  0
124125  2  0
124126  1  0
126127  1  0
127128  1  0
127133  1  0
128129  1  0
129130  1  0
130131  2  0
130132  1  0
133134  2  0
133135  1  0
135136  1  0
136137  1  0
136145  1  0
137138  1  0
138139  2  0
138144  1  0
139140  1  0
140141  2  0
141142  1  0
141143  1  0
143144  2  0
145146  2  0
145147  1  0
147148  1  0
148149  1  0
148153  1  0
149150  1  0
150151  1  0
150152  1  0
153154  2  0
153155  1  0
  1156  1  0
  3157  1  0
  3158  1  0
  4159  1  0
  5160  1  0
  5161  1  0
  6162  1  0
  6163  1  0
  7164  1  0
  7165  1  0
  8166  1  0
  9167  1  0
 12168  1  0
 13169  1  0
 13170  1  0
 14171  1  0
 14172  1  0
 15173  1  0
 15174  1  0
 19175  1  0
 20176  1  0
 20177  1  0
 21178  1  0
 21179  1  0
 23180  1  0
 24181  1  0
 25182  1  0
 26183  1  0
 27184  1  0
 31185  1  0
 31186  1  0
 32187  1  0
 32188  1  0
 33189  1  0
 33190  1  0
 34191  1  0
 37192  1  0
 38193  1  0
 38194  1  0
 41195  1  0
 42196  1  0
 42197  1  0
 45198  1  0
 46199  1  0
 46200  1  0
 49201  1  0
 50202  1  0
 50203  1  0
 53204  1  0
 54205  1  0
 55206  1  0
 55207  1  0
 58208  1  0
 58209  1  0
 61210  1  0
 62211  1  0
 62212  1  0
 65213  1  0
 66214  1  0
 67215  1  0
 67216  1  0
 70217  1  0
 73218  1  0
 74219  1  0
 75220  1  0
 75221  1  0
 77222  1  0
 78223  1  0
 79224  1  0
 80225  1  0
 81226  1  0
 84227  1  0
 85228  1  0
 86229  1  0
 86230  1  0
 87231  1  0
 87232  1  0
 90233  1  0
 93234  1  0
 94235  1  0
 95236  1  0
 95237  1  0
 96238  1  0
 96239  1  0
 99240  1  0
102241  1  0
103242  1  0
104243  1  0
105244  1  0
105245  1  0
105246  1  0
106247  1  0
106248  1  0
107249  1  0
107250  1  0
107251  1  0
111252  1  0
111253  1  0
112254  1  0
112255  1  0
113256  1  0
113257  1  0
114258  1  0
117259  1  0
118260  1  0
119261  1  0
119262  1  0
120263  1  0
120264  1  0
123265  1  0
126266  1  0
127267  1  0
128268  1  0
128269  1  0
129270  1  0
129271  1  0
132272  1  0
135273  1  0
136274  1  0
137275  1  0
137276  1  0
139277  1  0
140278  1  0
142279  1  0
143280  1  0
144281  1  0
147282  1  0
148283  1  0
149284  1  0
149285  1  0
150286  1  0
151287  1  0
151288  1  0
151289  1  0
152290  1  0
152291  1  0
152292  1  0
155293  1  0
M  END
