cyanocobalamin
     RDKit          3D

181188  0  0  1  0  0  0  0  0999 V2000
   -2.3913    0.0605  -18.3644 C   0  0  0  0  0  0  0  0  0  0  0  0
   -0.9812   -0.2708  -17.8174 C   0  0  0  0  0  0  0  0  0  0  0  0
   -1.0189   -0.6794  -16.3189 C   0  0  0  0  0  0  0  0  0  0  0  0
   -1.2201    0.4128  -15.4194 N   0  0  0  0  0  0  0  0  0  0  0  0
   -1.2158    0.2557  -14.0676 C   0  0  0  0  0  0  0  0  0  0  0  0
   -0.9484   -0.8544  -13.5467 O   0  0  0  0  0  0  0  0  0  0  0  0
   -1.5834    1.3763  -13.1845 C   0  0  0  0  0  0  0  0  0  0  0  0
   -0.4548    2.4142  -12.9620 C   0  0  0  0  0  0  0  0  0  0  0  0
   -0.7289    3.6821  -12.0472 C   0  0  0  0  0  0  0  0  0  0  0  0
    0.6186    4.4952  -12.0415 C   0  0  0  0  0  0  0  0  0  0  0  0
   -1.2794    3.3829  -10.5803 C   0  0  0  0  0  0  0  0  0  0  0  0
   -0.2864    3.4339   -9.3567 C   0  0  0  0  0  0  0  0  0  0  0  0
    0.8381    2.4680   -9.3215 C   0  0  0  0  0  0  0  0  0  0  0  0
    1.0737    1.6621  -10.2450 O   0  0  0  0  0  0  0  0  0  0  0  0
    1.6647    2.4172   -8.2598 N   0  0  0  0  0  0  0  0  0  0  0  0
   -2.5310    4.3307  -10.3901 C   0  0  0  0  0  0  0  0  0  0  0  0
   -2.6931    4.7898  -11.6567 N   0  0  0  0  0  0  0  0  0  0  0  0
   -1.8381    4.5063  -12.5519 C   0  0  0  0  0  0  0  0  0  0  0  0
   -2.0825    5.0283  -13.7890 C   0  0  0  0  0  0  0  0  0  0  0  0
   -3.0802    4.5658  -14.5992 C   0  0  0  0  0  0  0  0  0  0  0  0
   -3.9325    3.6514  -14.2457 N   0  0  0  0  0  0  0  0  0  0  0  0
   -4.8440    3.3776  -15.1083 C   0  0  0  0  0  0  0  0  0  0  0  0
   -5.7433    2.3407  -14.9962 C   0  0  0  0  0  0  0  0  0  0  0  0
   -5.8167    1.3418  -14.0873 C   0  0  0  0  0  0  0  0  0  0  0  0
   -5.4183    1.5347  -12.9003 N   0  0  0  0  0  0  0  0  0  0  0  0
   -5.9799    0.7327  -12.0783 C   0  0  0  0  0  0  0  0  0  0  0  0
   -6.4035    1.4348  -10.9393 C   0  0  0  0  0  0  0  0  0  0  0  0
   -5.7451    2.5025  -10.4066 C   0  0  0  0  0  0  0  0  0  0  0  0
   -6.3751    3.7628   -9.8987 C   0  0  0  0  0  0  0  0  0  0  0  0
   -7.2338    3.6547   -8.5694 C   0  0  0  0  0  0  0  0  0  0  0  0
   -8.4516    4.6328   -8.4638 C   0  0  0  0  0  0  0  0  0  0  0  0
   -9.2489    4.3179   -7.2580 C   0  0  0  0  0  0  0  0  0  0  0  0
   -9.3177    5.1187   -6.3018 O   0  0  0  0  0  0  0  0  0  0  0  0
   -9.8688    3.1244   -7.1503 N   0  0  0  0  0  0  0  0  0  0  0  0
   -5.1841    4.8205   -9.8602 C   0  0  0  0  0  0  0  0  0  0  0  0
   -5.1746    5.8359   -8.6523 C   0  0  0  0  0  0  0  0  0  0  0  0
   -5.2793    5.7826  -11.1369 C   0  0  0  0  0  0  0  0  0  0  0  0
   -6.5468    6.5419  -11.4956 C   0  0  0  0  0  0  0  0  0  0  0  0
   -6.9462    7.3486  -10.5822 O   0  0  0  0  0  0  0  0  0  0  0  0
   -7.2070    6.4309  -12.7873 N   0  0  0  0  0  0  0  0  0  0  0  0
   -3.9177    3.8138   -9.7890 C   0  0  0  0  0  0  0  0  0  0  0  0
   -3.6288    3.3259   -8.3222 C   0  0  0  0  0  0  0  0  0  0  0  0
   -4.4166    2.5655  -10.3209 N   0  0  0  0  0  0  0  0  0  0  0  0
   -3.4085    0.6153  -10.2477 Co  0  0  0  0  0  2  0  0  0  0  0  0
   -1.6231   -0.4948  -10.0350 C   0  0  0  0  0  0  0  0  0  0  0  0
   -0.6443   -1.0708   -9.9426 N   0  0  0  0  0  0  0  0  0  0  0  0
   -7.7536    1.1684  -10.4642 C   0  0  0  0  0  0  0  0  0  0  0  0
   -6.3601   -0.5415  -12.7835 C   0  0  0  0  0  0  0  0  0  0  0  0
   -5.1044   -1.4970  -12.8042 C   0  0  0  0  0  0  0  0  0  0  0  0
   -7.4882   -1.5717  -12.2777 C   0  0  0  0  0  0  0  0  0  0  0  0
   -8.3002   -2.3570  -13.1995 C   0  0  0  0  0  0  0  0  0  0  0  0
   -9.0465   -1.8314  -14.0591 O   0  0  0  0  0  0  0  0  0  0  0  0
   -8.3778   -3.6691  -12.9791 N   0  0  0  0  0  0  0  0  0  0  0  0
   -6.6515    0.1445  -14.1695 C   0  0  0  0  0  0  0  0  0  0  0  0
   -6.3892   -0.7071  -15.4590 C   0  0  0  0  0  0  0  0  0  0  0  0
   -6.9134   -0.1160  -16.7966 C   0  0  0  0  0  0  0  0  0  0  0  0
   -6.7560   -1.0248  -17.9299 C   0  0  0  0  0  0  0  0  0  0  0  0
   -5.9722   -0.7359  -18.8608 O   0  0  0  0  0  0  0  0  0  0  0  0
   -7.4764   -2.1544  -17.9826 N   0  0  0  0  0  0  0  0  0  0  0  0
   -4.7430    4.2461  -16.2839 C   0  0  0  0  0  0  0  0  0  0  0  0
   -5.9183    5.2589  -16.2754 C   0  0  0  0  0  0  0  0  0  0  0  0
   -4.9459    3.5360  -17.6678 C   0  0  0  0  0  0  0  0  0  0  0  0
   -3.3408    4.9250  -15.9969 C   0  0  0  0  0  0  0  0  0  0  0  0
   -2.1480    4.3037  -16.7892 C   0  0  0  0  0  0  0  0  0  0  0  0
   -1.0919    5.1908  -17.4746 C   0  0  0  0  0  0  0  0  0  0  0  0
   -0.3261    4.4501  -18.4951 C   0  0  0  0  0  0  0  0  0  0  0  0
    0.7757    4.9040  -18.8687 O   0  0  0  0  0  0  0  0  0  0  0  0
   -0.7730    3.3127  -19.0665 N   0  0  0  0  0  0  0  0  0  0  0  0
   -1.2598    6.1746  -14.1487 C   0  0  0  0  0  0  0  0  0  0  0  0
   -0.1562    0.8771  -18.0978 O   0  0  0  0  0  0  0  0  0  0  0  0
    1.4175    0.7791  -17.8572 P   0  0  0  0  0  0  0  0  0  0  0  0
    2.0801    1.8571  -18.6019 O   0  0  0  0  0  0  0  0  0  0  0  0
    1.9344   -0.6231  -18.3825 O   0  0  0  0  0  0  0  0  0  0  0  0
    1.6995    0.9582  -16.2887 O   0  0  0  0  0  0  0  0  0  0  0  0
    2.9025    0.3362  -15.7829 C   0  0  0  0  0  0  0  0  0  0  0  0
    3.2107    0.6946  -14.3011 C   0  0  0  0  0  0  0  0  0  0  0  0
    2.6083   -0.2928  -13.2789 C   0  0  0  0  0  0  0  0  0  0  0  0
    2.9418    0.0732  -11.9459 O   0  0  0  0  0  0  0  0  0  0  0  0
    4.6469    0.7623  -14.1528 O   0  0  0  0  0  0  0  0  0  0  0  0
    5.2372    0.3352  -15.3919 C   0  0  0  0  0  0  0  0  0  0  0  0
    4.2121    0.7901  -16.4418 C   0  0  0  0  0  0  0  0  0  0  0  0
    4.2480    2.2078  -16.6245 O   0  0  0  0  0  0  0  0  0  0  0  0
    6.5416    0.8505  -15.6884 N   0  0  0  0  0  0  0  0  0  0  0  0
    7.2423    1.7640  -14.9867 C   0  0  0  0  0  0  0  0  0  0  0  0
    8.4010    2.0709  -15.5942 N   0  0  0  0  0  0  0  0  0  0  0  0
    8.4448    1.3267  -16.7056 C   0  0  0  0  0  0  0  0  0  0  0  0
    9.4161    1.2748  -17.7067 C   0  0  0  0  0  0  0  0  0  0  0  0
    9.2435    0.4033  -18.8127 C   0  0  0  0  0  0  0  0  0  0  0  0
   10.3107    0.4308  -19.8347 C   0  0  0  0  0  0  0  0  0  0  0  0
    8.0809   -0.4345  -18.8857 C   0  0  0  0  0  0  0  0  0  0  0  0
    7.7668   -1.4008  -19.9864 C   0  0  0  0  0  0  0  0  0  0  0  0
    7.1334   -0.3479  -17.8313 C   0  0  0  0  0  0  0  0  0  0  0  0
    7.3069    0.5470  -16.7612 C   0  0  0  0  0  0  0  0  0  0  0  0
   -2.3287    0.2979  -19.4291 H   0  0  0  0  0  0  0  0  0  0  0  0
   -3.0571   -0.7965  -18.2454 H   0  0  0  0  0  0  0  0  0  0  0  0
   -2.8206    0.9170  -17.8420 H   0  0  0  0  0  0  0  0  0  0  0  0
   -0.6272   -1.1300  -18.3980 H   0  0  0  0  0  0  0  0  0  0  0  0
   -1.8154   -1.4135  -16.1654 H   0  0  0  0  0  0  0  0  0  0  0  0
   -0.0713   -1.1645  -16.0726 H   0  0  0  0  0  0  0  0  0  0  0  0
   -1.3903    1.2982  -15.7830 H   0  0  0  0  0  0  0  0  0  0  0  0
   -2.4674    1.8418  -13.5868 H   0  0  0  0  0  0  0  0  0  0  0  0
   -1.8627    0.9535  -12.2366 H   0  0  0  0  0  0  0  0  0  0  0  0
   -0.1289    2.7542  -13.9485 H   0  0  0  0  0  0  0  0  0  0  0  0
    0.3859    1.8593  -12.5508 H   0  0  0  0  0  0  0  0  0  0  0  0
    0.5248    5.4216  -11.4746 H   0  0  0  0  0  0  0  0  0  0  0  0
    0.9456    4.7462  -13.0532 H   0  0  0  0  0  0  0  0  0  0  0  0
    1.4309    3.9122  -11.6055 H   0  0  0  0  0  0  0  0  0  0  0  0
   -1.6504    2.3743  -10.5742 H   0  0  0  0  0  0  0  0  0  0  0  0
   -0.8440    3.2356   -8.4464 H   0  0  0  0  0  0  0  0  0  0  0  0
    0.1123    4.4429   -9.2466 H   0  0  0  0  0  0  0  0  0  0  0  0
    2.4219    1.8080   -8.2606 H   0  0  0  0  0  0  0  0  0  0  0  0
    1.5073    2.9879   -7.4922 H   0  0  0  0  0  0  0  0  0  0  0  0
   -2.2421    5.2077   -9.8073 H   0  0  0  0  0  0  0  0  0  0  0  0
   -6.4356    2.3079  -15.7011 H   0  0  0  0  0  0  0  0  0  0  0  0
   -7.0646    4.0437  -10.7107 H   0  0  0  0  0  0  0  0  0  0  0  0
   -7.6272    2.6595   -8.4174 H   0  0  0  0  0  0  0  0  0  0  0  0
   -6.6084    3.7455   -7.6874 H   0  0  0  0  0  0  0  0  0  0  0  0
   -9.1032    4.5567   -9.3437 H   0  0  0  0  0  0  0  0  0  0  0  0
   -8.1027    5.6632   -8.4025 H   0  0  0  0  0  0  0  0  0  0  0  0
  -10.3478    2.8990   -6.3395 H   0  0  0  0  0  0  0  0  0  0  0  0
   -9.8177    2.4810   -7.8761 H   0  0  0  0  0  0  0  0  0  0  0  0
   -4.2853    6.4635   -8.6867 H   0  0  0  0  0  0  0  0  0  0  0  0
   -6.0296    6.4930   -8.6489 H   0  0  0  0  0  0  0  0  0  0  0  0
   -5.1972    5.3612   -7.6826 H   0  0  0  0  0  0  0  0  0  0  0  0
   -5.0786    5.1787  -12.0099 H   0  0  0  0  0  0  0  0  0  0  0  0
   -4.4777    6.5303  -11.0813 H   0  0  0  0  0  0  0  0  0  0  0  0
   -7.9956    6.9339  -13.0288 H   0  0  0  0  0  0  0  0  0  0  0  0
   -6.8320    5.8365  -13.4523 H   0  0  0  0  0  0  0  0  0  0  0  0
   -2.9096    2.5072   -8.3002 H   0  0  0  0  0  0  0  0  0  0  0  0
   -4.5177    2.9130   -7.8422 H   0  0  0  0  0  0  0  0  0  0  0  0
   -3.2470    4.1340   -7.6980 H   0  0  0  0  0  0  0  0  0  0  0  0
   -7.6794    0.5981   -9.5177 H   0  0  0  0  0  0  0  0  0  0  0  0
   -8.3241    2.0565  -10.3272 H   0  0  0  0  0  0  0  0  0  0  0  0
   -8.4270    0.7232  -11.1716 H   0  0  0  0  0  0  0  0  0  0  0  0
   -5.2586   -2.4430  -13.3533 H   0  0  0  0  0  0  0  0  0  0  0  0
   -4.8170   -1.7735  -11.7873 H   0  0  0  0  0  0  0  0  0  0  0  0
   -4.2313   -1.0473  -13.2728 H   0  0  0  0  0  0  0  0  0  0  0  0
   -8.2537   -1.2327  -11.5716 H   0  0  0  0  0  0  0  0  0  0  0  0
   -6.9495   -2.2881  -11.6575 H   0  0  0  0  0  0  0  0  0  0  0  0
   -9.0154   -4.2337  -13.4685 H   0  0  0  0  0  0  0  0  0  0  0  0
   -7.8627   -4.0662  -12.2459 H   0  0  0  0  0  0  0  0  0  0  0  0
   -7.6935    0.4969  -14.1919 H   0  0  0  0  0  0  0  0  0  0  0  0
   -6.7946   -1.7094  -15.3212 H   0  0  0  0  0  0  0  0  0  0  0  0
   -5.3170   -0.8801  -15.5506 H   0  0  0  0  0  0  0  0  0  0  0  0
   -7.9646    0.1513  -16.6885 H   0  0  0  0  0  0  0  0  0  0  0  0
   -6.3147    0.7806  -16.9569 H   0  0  0  0  0  0  0  0  0  0  0  0
   -7.3685   -2.7686  -18.7234 H   0  0  0  0  0  0  0  0  0  0  0  0
   -8.1029   -2.3568  -17.2701 H   0  0  0  0  0  0  0  0  0  0  0  0
   -5.8461    5.9067  -17.1491 H   0  0  0  0  0  0  0  0  0  0  0  0
   -6.8643    4.7180  -16.3014 H   0  0  0  0  0  0  0  0  0  0  0  0
   -5.8703    5.8636  -15.3698 H   0  0  0  0  0  0  0  0  0  0  0  0
   -4.8510    4.2685  -18.4694 H   0  0  0  0  0  0  0  0  0  0  0  0
   -5.9378    3.0854  -17.7030 H   0  0  0  0  0  0  0  0  0  0  0  0
   -4.1900    2.7608  -17.7927 H   0  0  0  0  0  0  0  0  0  0  0  0
   -3.3747    6.0148  -16.1313 H   0  0  0  0  0  0  0  0  0  0  0  0
   -2.5275    3.5729  -17.5033 H   0  0  0  0  0  0  0  0  0  0  0  0
   -1.6094    3.6655  -16.0886 H   0  0  0  0  0  0  0  0  0  0  0  0
   -1.5821    6.0467  -17.9385 H   0  0  0  0  0  0  0  0  0  0  0  0
   -0.4186    5.6556  -16.7544 H   0  0  0  0  0  0  0  0  0  0  0  0
   -0.2503    2.8511  -19.7395 H   0  0  0  0  0  0  0  0  0  0  0  0
   -1.6179    2.9328  -18.7708 H   0  0  0  0  0  0  0  0  0  0  0  0
   -1.4253    6.9796  -13.4327 H   0  0  0  0  0  0  0  0  0  0  0  0
   -1.5294    6.5160  -15.1481 H   0  0  0  0  0  0  0  0  0  0  0  0
   -0.2087    5.8862  -14.1345 H   0  0  0  0  0  0  0  0  0  0  0  0
    2.8159   -0.7541  -15.8969 H   0  0  0  0  0  0  0  0  0  0  0  0
    2.8091    1.6876  -14.0800 H   0  0  0  0  0  0  0  0  0  0  0  0
    1.5241   -0.3138  -13.3894 H   0  0  0  0  0  0  0  0  0  0  0  0
    2.9997   -1.2899  -13.4804 H   0  0  0  0  0  0  0  0  0  0  0  0
    2.5463   -0.5705  -11.3218 H   0  0  0  0  0  0  0  0  0  0  0  0
    5.3122   -0.7585  -15.3664 H   0  0  0  0  0  0  0  0  0  0  0  0
    4.3628    0.2996  -17.4029 H   0  0  0  0  0  0  0  0  0  0  0  0
    5.1414    2.4759  -16.9251 H   0  0  0  0  0  0  0  0  0  0  0  0
    6.9456    2.1910  -14.1144 H   0  0  0  0  0  0  0  0  0  0  0  0
   10.2178    1.8828  -17.5986 H   0  0  0  0  0  0  0  0  0  0  0  0
    9.8864    0.7227  -20.7954 H   0  0  0  0  0  0  0  0  0  0  0  0
   10.7571   -0.5599  -19.9207 H   0  0  0  0  0  0  0  0  0  0  0  0
   11.0758    1.1499  -19.5420 H   0  0  0  0  0  0  0  0  0  0  0  0
    7.6916   -0.8630  -20.9315 H   0  0  0  0  0  0  0  0  0  0  0  0
    6.8199   -1.8975  -19.7747 H   0  0  0  0  0  0  0  0  0  0  0  0
    8.5603   -2.1450  -20.0540 H   0  0  0  0  0  0  0  0  0  0  0  0
    6.3045   -0.9284  -17.8146 H   0  0  0  0  0  0  0  0  0  0  0  0
  1  2  1  0
  2  3  1  0
  2 70  1  0
  3  4  1  0
  4  5  1  0
  5  6  2  0
  5  7  1  0
  7  8  1  0
  8  9  1  0
  9 10  1  0
  9 11  1  0
  9 18  1  0
 11 12  1  0
 11 16  1  0
 12 13  1  0
 13 14  2  0
 13 15  1  0
 16 17  1  0
 16 41  1  0
 17 18  2  0
 18 19  1  0
 19 20  2  0
 19 69  1  0
 20 21  1  0
 20 63  1  0
 21 22  2  0
 22 23  1  0
 22 60  1  0
 23 24  2  0
 24 25  1  0
 24 54  1  0
 25 26  2  0
 26 27  1  0
 26 48  1  0
 27 28  2  0
 27 47  1  0
 28 29  1  0
 28 43  1  0
 29 30  1  0
 29 35  1  0
 30 31  1  0
 31 32  1  0
 32 33  2  0
 32 34  1  0
 35 36  1  0
 35 37  1  0
 35 41  1  0
 37 38  1  0
 38 39  2  0
 38 40  1  0
 41 42  1  0
 41 43  1  0
 43 44  1  0
 44 45  1  0
 45 46  3  0
 48 49  1  0
 48 50  1  0
 48 54  1  0
 50 51  1  0
 51 52  2  0
 51 53  1  0
 54 55  1  0
 55 56  1  0
 56 57  1  0
 57 58  2  0
 57 59  1  0
 60 61  1  0
 60 62  1  0
 60 63  1  0
 63 64  1  0
 64 65  1  0
 65 66  1  0
 66 67  2  0
 66 68  1  0
 70 71  1  0
 71 72  2  0
 71 73  1  0
 71 74  1  0
 74 75  1  0
 75 76  1  0
 75 81  1  0
 76 77  1  0
 76 79  1  0
 77 78  1  0
 79 80  1  0
 80 81  1  0
 80 83  1  0
 81 82  1  0
 83 84  1  0
 83 93  1  0
 84 85  2  0
 85 86  1  0
 86 87  1  0
 86 93  2  0
 87 88  2  0
 88 89  1  0
 88 90  1  0
 90 91  1  0
 90 92  2  0
 92 93  1  0
  1 94  1  0
  1 95  1  0
  1 96  1  0
  2 97  1  0
  3 98  1  0
  3 99  1  0
  4100  1  0
  7101  1  0
  7102  1  0
  8103  1  0
  8104  1  0
 10105  1  0
 10106  1  0
 10107  1  0
 11108  1  0
 12109  1  0
 12110  1  0
 15111  1  0
 15112  1  0
 16113  1  0
 23114  1  0
 29115  1  0
 30116  1  0
 30117  1  0
 31118  1  0
 31119  1  0
 34120  1  0
 34121  1  0
 36122  1  0
 36123  1  0
 36124  1  0
 37125  1  0
 37126  1  0
 40127  1  0
 40128  1  0
 42129  1  0
 42130  1  0
 42131  1  0
 47132  1  0
 47133  1  0
 47134  1  0
 49135  1  0
 49136  1  0
 49137  1  0
 50138  1  0
 50139  1  0
 53140  1  0
 53141  1  0
 54142  1  0
 55143  1  0
 55144  1  0
 56145  1  0
 56146  1  0
 59147  1  0
 59148  1  0
 61149  1  0
 61150  1  0
 61151  1  0
 62152  1  0
 62153  1  0
 62154  1  0
 63155  1  0
 64156  1  0
 64157  1  0
 65158  1  0
 65159  1  0
 68160  1  0
 68161  1  0
 69162  1  0
 69163  1  0
 69164  1  0
 75165  1  0
 76166  1  0
 77167  1  0
 77168  1  0
 78169  1  0
 80170  1  0
 81171  1  0
 82172  1  0
 84173  1  0
 87174  1  0
 89175  1  0
 89176  1  0
 89177  1  0
 91178  1  0
 91179  1  0
 91180  1  0
 92181  1  0
M  CHG  2  44   1  73  -1
M  END
