ademetionine
     RDKit          3D

 49 51  0  0  1  0  0  0  0  0999 V2000
   -2.6397   10.2515    2.1176 C   0  0  0  0  0  0  0  0  0  0  0  0
   -3.7057   10.0588    3.0995 N   0  0  0  0  0  0  0  0  0  0  0  0
   -1.9908    8.9032    1.7983 C   0  0  0  0  0  0  0  0  0  0  0  0
   -0.8752    9.1048    0.7708 C   0  0  0  0  0  0  0  0  0  0  0  0
   -0.1117    7.5187    0.3951 S   0  0  0  0  0  0  0  0  0  0  0  0
    1.2007    7.7558   -0.8137 C   0  0  0  0  0  0  0  0  0  0  0  0
   -1.3515    6.4001   -0.2770 C   0  0  0  0  0  0  0  0  0  0  0  0
   -0.7025    5.0519   -0.5963 C   0  0  0  0  0  0  0  0  0  0  0  0
   -0.1539    4.4923    0.5988 O   0  0  0  0  0  0  0  0  0  0  0  0
   -0.0543    3.0907    0.3170 C   0  0  0  0  0  0  0  0  0  0  0  0
    0.2651    2.3795    1.5300 N   0  0  0  0  0  0  0  0  0  0  0  0
   -0.4387    1.4043    2.1781 C   0  0  0  0  0  0  0  0  0  0  0  0
    0.2043    0.9819    3.2811 N   0  0  0  0  0  0  0  0  0  0  0  0
    1.3310    1.6921    3.3213 C   0  0  0  0  0  0  0  0  0  0  0  0
    2.4057    1.6624    4.2276 C   0  0  0  0  0  0  0  0  0  0  0  0
    2.3988    0.8494    5.2927 N   0  0  0  0  0  0  0  0  0  0  0  0
    3.4587    2.4991    3.9757 N   0  0  0  0  0  0  0  0  0  0  0  0
    3.5215    3.3627    2.9085 C   0  0  0  0  0  0  0  0  0  0  0  0
    2.4692    3.4010    2.0280 N   0  0  0  0  0  0  0  0  0  0  0  0
    1.3996    2.5729    2.2365 C   0  0  0  0  0  0  0  0  0  0  0  0
   -1.3944    2.8038   -0.3965 C   0  0  0  0  0  0  0  0  0  0  0  0
   -1.2119    1.7639   -1.3462 O   0  0  0  0  0  0  0  0  0  0  0  0
   -1.7608    4.0903   -1.1181 C   0  0  0  0  0  0  0  0  0  0  0  0
   -1.5912    3.9134   -2.5168 O   0  0  0  0  0  0  0  0  0  0  0  0
   -3.2002   10.8231    0.8967 C   0  0  0  0  0  0  0  0  0  0  0  0
   -3.7802   11.9298    0.9338 O   0  0  0  0  0  0  0  0  0  0  0  0
   -3.0919   10.1566   -0.2723 O   0  0  0  0  0  0  0  0  0  0  0  0
   -1.8889   10.9288    2.5246 H   0  0  0  0  0  0  0  0  0  0  0  0
   -4.1392   10.9594    3.3128 H   0  0  0  0  0  0  0  0  0  0  0  0
   -4.4097    9.4237    2.7179 H   0  0  0  0  0  0  0  0  0  0  0  0
   -2.7415    8.2259    1.3913 H   0  0  0  0  0  0  0  0  0  0  0  0
   -1.5724    8.4764    2.7098 H   0  0  0  0  0  0  0  0  0  0  0  0
   -1.2936    9.5316   -0.1407 H   0  0  0  0  0  0  0  0  0  0  0  0
   -0.1244    9.7821    1.1778 H   0  0  0  0  0  0  0  0  0  0  0  0
    1.6631    6.7953   -1.0412 H   0  0  0  0  0  0  0  0  0  0  0  0
    0.7823    8.1826   -1.7253 H   0  0  0  0  0  0  0  0  0  0  0  0
    1.9515    8.4331   -0.4067 H   0  0  0  0  0  0  0  0  0  0  0  0
   -2.1463    6.2565    0.4550 H   0  0  0  0  0  0  0  0  0  0  0  0
   -1.7699    6.8270   -1.1885 H   0  0  0  0  0  0  0  0  0  0  0  0
    0.0740    5.1476   -1.3552 H   0  0  0  0  0  0  0  0  0  0  0  0
    0.7532    2.8764   -0.4056 H   0  0  0  0  0  0  0  0  0  0  0  0
   -1.3392    1.0420    1.8647 H   0  0  0  0  0  0  0  0  0  0  0  0
    3.2190    0.9695    5.7964 H   0  0  0  0  0  0  0  0  0  0  0  0
    1.6389    1.0619    5.8568 H   0  0  0  0  0  0  0  0  0  0  0  0
    4.3344    3.9638    2.7733 H   0  0  0  0  0  0  0  0  0  0  0  0
   -2.1336    2.6068    0.3799 H   0  0  0  0  0  0  0  0  0  0  0  0
   -0.9055    0.9535   -0.8883 H   0  0  0  0  0  0  0  0  0  0  0  0
   -2.7808    4.3770   -0.8622 H   0  0  0  0  0  0  0  0  0  0  0  0
   -1.8274    4.7429   -2.9820 H   0  0  0  0  0  0  0  0  0  0  0  0
  1  2  1  0
  1  3  1  0
  1 25  1  0
  3  4  1  0
  4  5  1  0
  5  6  1  0
  5  7  1  0
  7  8  1  0
  8  9  1  0
  8 23  1  0
  9 10  1  0
 10 11  1  0
 10 21  1  0
 11 12  1  0
 11 20  1  0
 12 13  2  0
 13 14  1  0
 14 15  1  0
 14 20  2  0
 15 16  1  0
 15 17  2  0
 17 18  1  0
 18 19  2  0
 19 20  1  0
 21 22  1  0
 21 23  1  0
 23 24  1  0
 25 26  2  0
 25 27  1  0
  1 28  1  0
  2 29  1  0
  2 30  1  0
  3 31  1  0
  3 32  1  0
  4 33  1  0
  4 34  1  0
  6 35  1  0
  6 36  1  0
  6 37  1  0
  7 38  1  0
  7 39  1  0
  8 40  1  0
 10 41  1  0
 12 42  1  0
 16 43  1  0
 16 44  1  0
 18 45  1  0
 21 46  1  0
 22 47  1  0
 23 48  1  0
 24 49  1  0
M  CHG  2   5   1  27  -1
M  END
