biotin
     RDKit          3D

 32 33  0  0  1  0  0  0  0  0999 V2000
    0.4213    2.2197    0.8118 S   0  0  0  0  0  0  0  0  0  0  0  0
   -0.5479    1.2069   -0.3700 C   0  0  0  0  0  0  0  0  0  0  0  0
   -0.1300   -0.1704    0.1974 C   0  0  0  0  0  0  0  0  0  0  0  0
   -0.1462   -1.2157   -0.8172 N   0  0  0  0  0  0  0  0  0  0  0  0
    1.2316   -1.2703   -1.3603 C   0  0  0  0  0  0  0  0  0  0  0  0
    1.6268   -2.0032   -2.2926 O   0  0  0  0  0  0  0  0  0  0  0  0
    2.0538   -0.3060   -0.6050 N   0  0  0  0  0  0  0  0  0  0  0  0
    1.3429   -0.2076    0.6609 C   0  0  0  0  0  0  0  0  0  0  0  0
    1.6672    1.0442    1.4880 C   0  0  0  0  0  0  0  0  0  0  0  0
    0.0281    1.3747   -1.7774 C   0  0  0  0  0  0  0  0  0  0  0  0
   -0.0464    2.8470   -2.1868 C   0  0  0  0  0  0  0  0  0  0  0  0
    0.5296    3.0148   -3.5943 C   0  0  0  0  0  0  0  0  0  0  0  0
    0.4550    4.4872   -4.0037 C   0  0  0  0  0  0  0  0  0  0  0  0
    1.0047    4.6473   -5.3467 C   0  0  0  0  0  0  0  0  0  0  0  0
    1.0399    5.7788   -5.8768 O   0  0  0  0  0  0  0  0  0  0  0  0
    1.4748    3.5734   -6.0161 O   0  0  0  0  0  0  0  0  0  0  0  0
   -1.6208    1.3992   -0.3698 H   0  0  0  0  0  0  0  0  0  0  0  0
   -0.7840   -0.4350    1.0426 H   0  0  0  0  0  0  0  0  0  0  0  0
   -0.9022   -1.7626   -1.0823 H   0  0  0  0  0  0  0  0  0  0  0  0
    2.8646    0.1483   -0.8826 H   0  0  0  0  0  0  0  0  0  0  0  0
    1.5430   -1.1345    1.1985 H   0  0  0  0  0  0  0  0  0  0  0  0
    1.4518    0.8512    2.5389 H   0  0  0  0  0  0  0  0  0  0  0  0
    2.6979    1.3856    1.3912 H   0  0  0  0  0  0  0  0  0  0  0  0
   -0.5481    0.7726   -2.4800 H   0  0  0  0  0  0  0  0  0  0  0  0
    1.0678    1.0474   -1.7859 H   0  0  0  0  0  0  0  0  0  0  0  0
   -1.0861    3.1743   -2.1783 H   0  0  0  0  0  0  0  0  0  0  0  0
    0.5298    3.4491   -1.4843 H   0  0  0  0  0  0  0  0  0  0  0  0
   -0.0466    2.4128   -4.2968 H   0  0  0  0  0  0  0  0  0  0  0  0
    1.5692    2.6876   -3.6028 H   0  0  0  0  0  0  0  0  0  0  0  0
   -0.5846    4.8145   -3.9952 H   0  0  0  0  0  0  0  0  0  0  0  0
    1.0312    5.0893   -3.3011 H   0  0  0  0  0  0  0  0  0  0  0  0
    1.8438    3.6808   -6.9176 H   0  0  0  0  0  0  0  0  0  0  0  0
  1  2  1  0
  1  9  1  0
  2  3  1  0
  2 10  1  0
  3  4  1  0
  3  8  1  0
  4  5  1  0
  5  6  2  0
  5  7  1  0
  7  8  1  0
  8  9  1  0
 10 11  1  0
 11 12  1  0
 12 13  1  0
 13 14  1  0
 14 15  2  0
 14 16  1  0
  2 17  1  0
  3 18  1  0
  4 19  1  0
  7 20  1  0
  8 21  1  0
  9 22  1  0
  9 23  1  0
 10 24  1  0
 10 25  1  0
 11 26  1  0
 11 27  1  0
 12 28  1  0
 12 29  1  0
 13 30  1  0
 13 31  1  0
 16 32  1  0
M  END
