goserelin
     RDKit          3D

175180  0  0  1  0  0  0  0  0999 V2000
   -4.3494   -6.1296   -5.9707 O   0  0  0  0  0  0  0  0  0  0  0  0
   -4.3536   -6.9555   -6.9219 C   0  0  0  0  0  0  0  0  0  0  0  0
   -4.6053   -6.4450   -8.1811 N   0  0  0  0  0  0  0  0  0  0  0  0
   -4.9755   -5.0548   -8.3659 C   0  0  0  0  0  0  0  0  0  0  0  0
   -3.5616   -4.6723   -8.8835 C   0  0  0  0  0  0  0  0  0  0  0  0
   -3.2244   -5.8708   -9.8350 C   0  0  0  0  0  0  0  0  0  0  0  0
   -4.1499   -7.0410   -9.4077 C   0  0  0  0  0  0  0  0  0  0  0  0
   -6.1302   -4.7941   -9.2634 C   0  0  0  0  0  0  0  0  0  0  0  0
   -7.2886   -5.1550   -8.9420 O   0  0  0  0  0  0  0  0  0  0  0  0
   -5.9008   -4.0982  -10.3901 N   0  0  0  0  0  0  0  0  0  0  0  0
   -6.7929   -3.7582  -11.2468 N   0  0  0  0  0  0  0  0  0  0  0  0
   -6.4678   -3.6725  -12.5542 C   0  0  0  0  0  0  0  0  0  0  0  0
   -7.3652   -3.3402  -13.3575 O   0  0  0  0  0  0  0  0  0  0  0  0
   -5.2081   -3.8969  -13.0114 N   0  0  0  0  0  0  0  0  0  0  0  0
   -4.0708   -8.3943   -6.6041 C   0  0  0  0  0  0  0  0  0  0  0  0
   -2.8075   -8.7479   -7.1524 N   0  0  0  0  0  0  0  0  0  0  0  0
   -2.3746  -10.0171   -7.3855 C   0  0  0  0  0  0  0  0  0  0  0  0
   -3.0768  -11.0117   -7.0711 O   0  0  0  0  0  0  0  0  0  0  0  0
   -1.0378  -10.2194   -7.9796 C   0  0  0  0  0  0  0  0  0  0  0  0
   -0.3075  -11.1665   -7.2067 N   0  0  0  0  0  0  0  0  0  0  0  0
    0.0982  -10.9084   -5.9622 C   0  0  0  0  0  0  0  0  0  0  0  0
   -0.0958   -9.7505   -5.4967 O   0  0  0  0  0  0  0  0  0  0  0  0
    0.7811  -11.9871   -5.2134 C   0  0  0  0  0  0  0  0  0  0  0  0
   -0.0225  -13.1688   -5.1262 N   0  0  0  0  0  0  0  0  0  0  0  0
    0.5123  -14.3804   -4.8173 C   0  0  0  0  0  0  0  0  0  0  0  0
    1.7630  -14.5129   -4.7947 O   0  0  0  0  0  0  0  0  0  0  0  0
   -0.3467  -15.5447   -4.5233 C   0  0  0  0  0  0  0  0  0  0  0  0
   -0.6410  -16.0795   -5.8092 N   0  0  0  0  0  0  0  0  0  0  0  0
   -1.4371  -17.1377   -6.0473 C   0  0  0  0  0  0  0  0  0  0  0  0
   -2.0204  -17.7050   -5.0881 O   0  0  0  0  0  0  0  0  0  0  0  0
   -1.6302  -17.5560   -7.4520 C   0  0  0  0  0  0  0  0  0  0  0  0
   -0.3506  -17.8098   -8.0606 N   0  0  0  0  0  0  0  0  0  0  0  0
   -0.1324  -17.9373   -9.4021 C   0  0  0  0  0  0  0  0  0  0  0  0
   -1.0864  -17.7329  -10.1922 O   0  0  0  0  0  0  0  0  0  0  0  0
    1.2110  -18.2537   -9.9533 C   0  0  0  0  0  0  0  0  0  0  0  0
    1.8384  -19.2993   -9.2000 N   0  0  0  0  0  0  0  0  0  0  0  0
    2.6383  -19.1001   -8.1126 C   0  0  0  0  0  0  0  0  0  0  0  0
    2.8416  -17.9275   -7.7038 O   0  0  0  0  0  0  0  0  0  0  0  0
    3.2179  -20.2657   -7.3942 C   0  0  0  0  0  0  0  0  0  0  0  0
    4.0101  -19.8113   -6.2893 N   0  0  0  0  0  0  0  0  0  0  0  0
    5.3251  -20.0793   -6.0745 C   0  0  0  0  0  0  0  0  0  0  0  0
    6.0979  -20.4262   -7.0006 O   0  0  0  0  0  0  0  0  0  0  0  0
    5.8115  -20.0270   -4.6834 C   0  0  0  0  0  0  0  0  0  0  0  0
    6.6484  -21.1002   -4.3058 N   0  0  0  0  0  0  0  0  0  0  0  0
    7.4073  -20.7804   -3.2614 C   0  0  0  0  0  0  0  0  0  0  0  0
    7.9745  -21.6327   -2.5457 O   0  0  0  0  0  0  0  0  0  0  0  0
    7.4672  -19.3377   -3.0637 C   0  0  0  0  0  0  0  0  0  0  0  0
    6.6720  -18.8130   -4.2833 C   0  0  0  0  0  0  0  0  0  0  0  0
    2.0582  -21.1898   -6.8949 C   0  0  0  0  0  0  0  0  0  0  0  0
    2.4213  -22.3676   -6.0757 C   0  0  0  0  0  0  0  0  0  0  0  0
    2.4657  -23.6357   -6.5014 N   0  0  0  0  0  0  0  0  0  0  0  0
    2.7007  -24.4343   -5.4537 C   0  0  0  0  0  0  0  0  0  0  0  0
    2.8164  -23.7030   -4.3343 N   0  0  0  0  0  0  0  0  0  0  0  0
    2.6486  -22.4240   -4.7034 C   0  0  0  0  0  0  0  0  0  0  0  0
    1.1613  -18.6297  -11.4629 C   0  0  0  0  0  0  0  0  0  0  0  0
    2.4806  -18.9837  -12.0154 C   0  0  0  0  0  0  0  0  0  0  0  0
    3.1077  -20.2219  -12.0812 C   0  0  0  0  0  0  0  0  0  0  0  0
    4.3531  -20.0185  -12.6742 C   0  0  0  0  0  0  0  0  0  0  0  0
    4.5022  -18.7118  -12.9705 N   0  0  0  0  0  0  0  0  0  0  0  0
    3.3797  -18.0777  -12.5780 C   0  0  0  0  0  0  0  0  0  0  0  0
    5.2441  -21.0740  -12.8813 C   0  0  0  0  0  0  0  0  0  0  0  0
    4.8360  -22.3609  -12.4681 C   0  0  0  0  0  0  0  0  0  0  0  0
    3.5844  -22.6012  -11.8680 C   0  0  0  0  0  0  0  0  0  0  0  0
    2.7148  -21.5176  -11.6767 C   0  0  0  0  0  0  0  0  0  0  0  0
   -2.5718  -18.7875   -7.5271 C   0  0  0  0  0  0  0  0  0  0  0  0
   -2.8124  -19.2218   -8.8538 O   0  0  0  0  0  0  0  0  0  0  0  0
    0.3619  -16.5489   -3.5504 C   0  0  0  0  0  0  0  0  0  0  0  0
    0.5306  -16.1159   -2.1284 C   0  0  0  0  0  0  0  0  0  0  0  0
   -0.0237  -14.9396   -1.5796 C   0  0  0  0  0  0  0  0  0  0  0  0
    0.1376  -14.6249   -0.2217 C   0  0  0  0  0  0  0  0  0  0  0  0
    0.9675  -15.4058    0.5909 C   0  0  0  0  0  0  0  0  0  0  0  0
    1.3474  -14.9156    1.7949 O   0  0  0  0  0  0  0  0  0  0  0  0
    1.5268  -16.5891    0.0658 C   0  0  0  0  0  0  0  0  0  0  0  0
    1.2557  -16.9654   -1.2591 C   0  0  0  0  0  0  0  0  0  0  0  0
    1.0539  -11.4606   -3.8026 C   0  0  0  0  0  0  0  0  0  0  0  0
    1.7028  -12.3304   -2.8512 O   0  0  0  0  0  0  0  0  0  0  0  0
    1.9860  -11.7508   -1.5473 C   0  0  0  0  0  0  0  0  0  0  0  0
    2.9443  -10.5281   -1.6404 C   0  0  0  0  0  0  0  0  0  0  0  0
    2.8044  -12.8162   -0.7517 C   0  0  0  0  0  0  0  0  0  0  0  0
    0.6560  -11.2669   -0.8597 C   0  0  0  0  0  0  0  0  0  0  0  0
   -1.1279  -10.6839   -9.4483 C   0  0  0  0  0  0  0  0  0  0  0  0
    0.2223  -10.9082  -10.1681 C   0  0  0  0  0  0  0  0  0  0  0  0
   -0.1039  -11.4283  -11.5644 C   0  0  0  0  0  0  0  0  0  0  0  0
    1.0683   -9.6338  -10.3224 C   0  0  0  0  0  0  0  0  0  0  0  0
   -4.0970   -8.7573   -5.0895 C   0  0  0  0  0  0  0  0  0  0  0  0
   -5.4751   -8.4648   -4.4787 C   0  0  0  0  0  0  0  0  0  0  0  0
   -5.3044   -8.4369   -2.9735 C   0  0  0  0  0  0  0  0  0  0  0  0
   -6.5109   -8.1490   -2.3681 N   0  0  0  0  0  0  0  0  0  0  0  0
   -6.7502   -8.1871   -1.1083 C   0  0  0  0  0  0  0  0  0  0  0  0
   -7.9563   -7.8793   -0.7085 N   0  0  0  0  0  0  0  0  0  0  0  0
   -5.8808   -8.5260   -0.1740 N   0  0  0  0  0  0  0  0  0  0  0  0
   -5.2170   -4.4918   -7.4551 H   0  0  0  0  0  0  0  0  0  0  0  0
   -3.5060   -3.6914   -9.3750 H   0  0  0  0  0  0  0  0  0  0  0  0
   -2.8597   -4.6512   -8.0288 H   0  0  0  0  0  0  0  0  0  0  0  0
   -3.4088   -5.6185  -10.8860 H   0  0  0  0  0  0  0  0  0  0  0  0
   -2.1768   -6.1646   -9.7069 H   0  0  0  0  0  0  0  0  0  0  0  0
   -4.9843   -7.2036  -10.0984 H   0  0  0  0  0  0  0  0  0  0  0  0
   -3.5872   -7.9792   -9.3417 H   0  0  0  0  0  0  0  0  0  0  0  0
   -4.9951   -3.8122  -10.5733 H   0  0  0  0  0  0  0  0  0  0  0  0
   -7.6795   -3.5129  -10.9346 H   0  0  0  0  0  0  0  0  0  0  0  0
   -5.0003   -3.8131  -13.9551 H   0  0  0  0  0  0  0  0  0  0  0  0
   -4.4975   -4.1352  -12.3904 H   0  0  0  0  0  0  0  0  0  0  0  0
   -4.8361   -9.0093   -7.0934 H   0  0  0  0  0  0  0  0  0  0  0  0
   -2.2434   -8.0155   -7.4486 H   0  0  0  0  0  0  0  0  0  0  0  0
   -0.4905   -9.2672   -7.9418 H   0  0  0  0  0  0  0  0  0  0  0  0
   -0.0855  -12.0378   -7.5730 H   0  0  0  0  0  0  0  0  0  0  0  0
    1.7385  -12.1993   -5.7064 H   0  0  0  0  0  0  0  0  0  0  0  0
   -0.9893  -13.0883   -5.2322 H   0  0  0  0  0  0  0  0  0  0  0  0
   -1.3046  -15.2119   -4.1012 H   0  0  0  0  0  0  0  0  0  0  0  0
   -0.2785  -15.6207   -6.5840 H   0  0  0  0  0  0  0  0  0  0  0  0
   -2.1006  -16.7093   -7.9670 H   0  0  0  0  0  0  0  0  0  0  0  0
    0.4167  -17.8899   -7.4712 H   0  0  0  0  0  0  0  0  0  0  0  0
    1.8047  -17.3400   -9.8659 H   0  0  0  0  0  0  0  0  0  0  0  0
    1.6683  -20.2143   -9.4807 H   0  0  0  0  0  0  0  0  0  0  0  0
    3.8417  -20.8324   -8.0978 H   0  0  0  0  0  0  0  0  0  0  0  0
    3.5626  -19.2722   -5.6144 H   0  0  0  0  0  0  0  0  0  0  0  0
    4.9436  -20.0867   -4.0098 H   0  0  0  0  0  0  0  0  0  0  0  0
    6.6359  -21.9851   -4.7081 H   0  0  0  0  0  0  0  0  0  0  0  0
    6.9977  -19.0664   -2.1130 H   0  0  0  0  0  0  0  0  0  0  0  0
    8.5060  -19.0098   -3.1107 H   0  0  0  0  0  0  0  0  0  0  0  0
    6.0452  -17.9578   -4.0220 H   0  0  0  0  0  0  0  0  0  0  0  0
    7.3554  -18.5362   -5.0965 H   0  0  0  0  0  0  0  0  0  0  0  0
    1.3289  -20.6006   -6.3283 H   0  0  0  0  0  0  0  0  0  0  0  0
    1.5329  -21.5753   -7.7728 H   0  0  0  0  0  0  0  0  0  0  0  0
    2.3194  -23.9289   -7.4108 H   0  0  0  0  0  0  0  0  0  0  0  0
    2.7689  -25.4501   -5.5002 H   0  0  0  0  0  0  0  0  0  0  0  0
    2.6501  -21.6309   -4.0650 H   0  0  0  0  0  0  0  0  0  0  0  0
    0.4573  -19.4472  -11.6400 H   0  0  0  0  0  0  0  0  0  0  0  0
    0.7870  -17.7648  -12.0160 H   0  0  0  0  0  0  0  0  0  0  0  0
    5.2970  -18.3033  -13.3948 H   0  0  0  0  0  0  0  0  0  0  0  0
    3.2166  -17.0813  -12.6778 H   0  0  0  0  0  0  0  0  0  0  0  0
    6.1625  -20.9363  -13.3130 H   0  0  0  0  0  0  0  0  0  0  0  0
    5.4621  -23.1397  -12.6069 H   0  0  0  0  0  0  0  0  0  0  0  0
    3.3172  -23.5591  -11.5766 H   0  0  0  0  0  0  0  0  0  0  0  0
    1.8103  -21.6763  -11.2490 H   0  0  0  0  0  0  0  0  0  0  0  0
   -3.5380  -18.5223   -7.0952 H   0  0  0  0  0  0  0  0  0  0  0  0
   -2.1469  -19.6197   -6.9580 H   0  0  0  0  0  0  0  0  0  0  0  0
   -3.3921  -19.9991   -8.7504 H   0  0  0  0  0  0  0  0  0  0  0  0
   -0.2048  -17.4807   -3.5134 H   0  0  0  0  0  0  0  0  0  0  0  0
    1.3375  -16.8073   -3.9806 H   0  0  0  0  0  0  0  0  0  0  0  0
   -0.4827  -14.2350   -2.1452 H   0  0  0  0  0  0  0  0  0  0  0  0
   -0.2926  -13.7799    0.1611 H   0  0  0  0  0  0  0  0  0  0  0  0
    1.9754  -15.5676    2.1801 H   0  0  0  0  0  0  0  0  0  0  0  0
    2.1463  -17.1806    0.6252 H   0  0  0  0  0  0  0  0  0  0  0  0
    1.6462  -17.8424   -1.6278 H   0  0  0  0  0  0  0  0  0  0  0  0
    0.0776  -11.1388   -3.4197 H   0  0  0  0  0  0  0  0  0  0  0  0
    1.7085  -10.6108   -3.9756 H   0  0  0  0  0  0  0  0  0  0  0  0
    3.2100  -10.1870   -0.6383 H   0  0  0  0  0  0  0  0  0  0  0  0
    2.5127   -9.6872   -2.1797 H   0  0  0  0  0  0  0  0  0  0  0  0
    3.8521  -10.8304   -2.1626 H   0  0  0  0  0  0  0  0  0  0  0  0
    2.9071  -12.5361    0.2974 H   0  0  0  0  0  0  0  0  0  0  0  0
    2.3693  -13.7865   -0.8182 H   0  0  0  0  0  0  0  0  0  0  0  0
    3.8072  -12.9669   -1.1545 H   0  0  0  0  0  0  0  0  0  0  0  0
    0.7421  -11.0860    0.2088 H   0  0  0  0  0  0  0  0  0  0  0  0
   -0.1960  -11.9228   -1.0479 H   0  0  0  0  0  0  0  0  0  0  0  0
    0.3897  -10.3257   -1.3407 H   0  0  0  0  0  0  0  0  0  0  0  0
   -1.7257  -11.5935   -9.5056 H   0  0  0  0  0  0  0  0  0  0  0  0
   -1.6752   -9.9168   -9.9962 H   0  0  0  0  0  0  0  0  0  0  0  0
    0.7951  -11.6656   -9.6331 H   0  0  0  0  0  0  0  0  0  0  0  0
    0.8220  -11.6022  -12.1128 H   0  0  0  0  0  0  0  0  0  0  0  0
   -0.7075  -10.6918  -12.0948 H   0  0  0  0  0  0  0  0  0  0  0  0
   -0.6591  -12.3628  -11.4835 H   0  0  0  0  0  0  0  0  0  0  0  0
    1.9985   -9.8753  -10.8366 H   0  0  0  0  0  0  0  0  0  0  0  0
    0.5129   -8.8971  -10.9029 H   0  0  0  0  0  0  0  0  0  0  0  0
    1.2932   -9.2255   -9.3371 H   0  0  0  0  0  0  0  0  0  0  0  0
   -3.8613   -9.8142   -4.9650 H   0  0  0  0  0  0  0  0  0  0  0  0
   -3.3464   -8.1854   -4.5439 H   0  0  0  0  0  0  0  0  0  0  0  0
   -6.1693   -9.2599   -4.7510 H   0  0  0  0  0  0  0  0  0  0  0  0
   -5.8657   -7.4983   -4.7970 H   0  0  0  0  0  0  0  0  0  0  0  0
   -4.9482   -9.4081   -2.6301 H   0  0  0  0  0  0  0  0  0  0  0  0
   -4.5861   -7.6731   -2.6755 H   0  0  0  0  0  0  0  0  0  0  0  0
   -8.0037   -7.9470    0.2580 H   0  0  0  0  0  0  0  0  0  0  0  0
   -8.5950   -8.4908   -1.1072 H   0  0  0  0  0  0  0  0  0  0  0  0
   -6.3055   -8.4753    0.6965 H   0  0  0  0  0  0  0  0  0  0  0  0
   -5.5736   -9.4324   -0.3317 H   0  0  0  0  0  0  0  0  0  0  0  0
  1  2  2  0
  2  3  1  0
  2 15  1  0
  3  4  1  0
  3  7  1  0
  4  5  1  0
  4  8  1  0
  5  6  1  0
  6  7  1  0
  8  9  2  0
  8 10  1  0
 10 11  1  0
 11 12  1  0
 12 13  2  0
 12 14  1  0
 15 16  1  0
 15 85  1  0
 16 17  1  0
 17 18  2  0
 17 19  1  0
 19 20  1  0
 19 81  1  0
 20 21  1  0
 21 22  2  0
 21 23  1  0
 23 24  1  0
 23 75  1  0
 24 25  1  0
 25 26  2  0
 25 27  1  0
 27 28  1  0
 27 67  1  0
 28 29  1  0
 29 30  2  0
 29 31  1  0
 31 32  1  0
 31 65  1  0
 32 33  1  0
 33 34  2  0
 33 35  1  0
 35 36  1  0
 35 55  1  0
 36 37  1  0
 37 38  2  0
 37 39  1  0
 39 40  1  0
 39 49  1  0
 40 41  1  0
 41 42  2  0
 41 43  1  0
 43 44  1  0
 43 48  1  0
 44 45  1  0
 45 46  2  0
 45 47  1  0
 47 48  1  0
 49 50  1  0
 50 51  1  0
 50 54  2  0
 51 52  1  0
 52 53  2  0
 53 54  1  0
 55 56  1  0
 56 57  1  0
 56 60  2  0
 57 58  2  0
 57 64  1  0
 58 59  1  0
 58 61  1  0
 59 60  1  0
 61 62  2  0
 62 63  1  0
 63 64  2  0
 65 66  1  0
 67 68  1  0
 68 69  2  0
 68 74  1  0
 69 70  1  0
 70 71  2  0
 71 72  1  0
 71 73  1  0
 73 74  2  0
 75 76  1  0
 76 77  1  0
 77 78  1  0
 77 79  1  0
 77 80  1  0
 81 82  1  0
 82 83  1  0
 82 84  1  0
 85 86  1  0
 86 87  1  0
 87 88  1  0
 88 89  2  3
 89 90  1  0
 89 91  1  0
  4 92  1  0
  5 93  1  0
  5 94  1  0
  6 95  1  0
  6 96  1  0
  7 97  1  0
  7 98  1  0
 10 99  1  0
 11100  1  0
 14101  1  0
 14102  1  0
 15103  1  0
 16104  1  0
 19105  1  0
 20106  1  0
 23107  1  0
 24108  1  0
 27109  1  0
 28110  1  0
 31111  1  0
 32112  1  0
 35113  1  0
 36114  1  0
 39115  1  0
 40116  1  0
 43117  1  0
 44118  1  0
 47119  1  0
 47120  1  0
 48121  1  0
 48122  1  0
 49123  1  0
 49124  1  0
 51125  1  0
 52126  1  0
 54127  1  0
 55128  1  0
 55129  1  0
 59130  1  0
 60131  1  0
 61132  1  0
 62133  1  0
 63134  1  0
 64135  1  0
 65136  1  0
 65137  1  0
 66138  1  0
 67139  1  0
 67140  1  0
 69141  1  0
 70142  1  0
 72143  1  0
 73144  1  0
 74145  1  0
 75146  1  0
 75147  1  0
 78148  1  0
 78149  1  0
 78150  1  0
 79151  1  0
 79152  1  0
 79153  1  0
 80154  1  0
 80155  1  0
 80156  1  0
 81157  1  0
 81158  1  0
 82159  1  0
 83160  1  0
 83161  1  0
 83162  1  0
 84163  1  0
 84164  1  0
 84165  1  0
 85166  1  0
 85167  1  0
 86168  1  0
 86169  1  0
 87170  1  0
 87171  1  0
 90172  1  0
 90173  1  0
 91174  1  0
 91175  1  0
M  END
