arginine
     RDKit          3D

 26 25  0  0  1  0  0  0  0  0999 V2000
    4.1259   -1.3266    0.0475 O   0  0  0  0  0  0  0  0  0  0  0  0
    2.9384   -0.9717    0.2105 C   0  0  0  0  0  0  0  0  0  0  0  0
    2.4946   -0.6453    1.4430 O   0  0  0  0  0  0  0  0  0  0  0  0
    2.0315   -0.9103   -0.9320 C   0  0  0  0  0  0  0  0  0  0  0  0
    1.9238   -2.2353   -1.5405 N   0  0  0  0  0  0  0  0  0  0  0  0
    0.6497   -0.4511   -0.4622 C   0  0  0  0  0  0  0  0  0  0  0  0
   -0.3007   -0.3867   -1.6595 C   0  0  0  0  0  0  0  0  0  0  0  0
   -1.6825    0.0725   -1.1897 C   0  0  0  0  0  0  0  0  0  0  0  0
   -2.5583    0.1318   -2.2930 N   0  0  0  0  0  0  0  0  0  0  0  0
   -3.7414    0.5250   -1.8908 C   0  0  0  0  0  0  0  0  0  0  0  0
   -4.6921    0.6484   -2.7314 N   0  0  0  0  0  0  0  0  0  0  0  0
   -3.9477    0.7914   -0.6248 N   0  0  0  0  0  0  0  0  0  0  0  0
    2.8887   -1.0690    2.2339 H   0  0  0  0  0  0  0  0  0  0  0  0
    2.4190   -0.2038   -1.6660 H   0  0  0  0  0  0  0  0  0  0  0  0
    1.5604   -2.8977   -0.8523 H   0  0  0  0  0  0  0  0  0  0  0  0
    1.2890   -2.1924   -2.3402 H   0  0  0  0  0  0  0  0  0  0  0  0
    0.2621   -1.1576    0.2718 H   0  0  0  0  0  0  0  0  0  0  0  0
    0.7300    0.5368   -0.0085 H   0  0  0  0  0  0  0  0  0  0  0  0
   -0.3810   -1.3746   -2.1131 H   0  0  0  0  0  0  0  0  0  0  0  0
    0.0869    0.3198   -2.3935 H   0  0  0  0  0  0  0  0  0  0  0  0
   -2.0700   -0.6340   -0.4557 H   0  0  0  0  0  0  0  0  0  0  0  0
   -1.6022    1.0604   -0.7360 H   0  0  0  0  0  0  0  0  0  0  0  0
   -2.6298   -0.7473   -2.6967 H   0  0  0  0  0  0  0  0  0  0  0  0
   -4.5448    0.4583   -3.6349 H   0  0  0  0  0  0  0  0  0  0  0  0
   -4.8692    1.0668   -0.4984 H   0  0  0  0  0  0  0  0  0  0  0  0
   -3.7715   -0.0015   -0.0947 H   0  0  0  0  0  0  0  0  0  0  0  0
  1  2  2  0
  2  3  1  0
  2  4  1  0
  4  5  1  0
  4  6  1  0
  6  7  1  0
  7  8  1  0
  8  9  1  0
  9 10  1  0
 10 11  2  0
 10 12  1  0
  3 13  1  0
  4 14  1  0
  5 15  1  0
  5 16  1  0
  6 17  1  0
  6 18  1  0
  7 19  1  0
  7 20  1  0
  8 21  1  0
  8 22  1  0
  9 23  1  0
 11 24  1  0
 12 25  1  0
 12 26  1  0
M  END
