ascorbic_acid
     RDKit          3D

 20 20  0  0  1  0  0  0  0  0999 V2000
    0.4802    1.4934    0.4718 O   0  0  0  0  0  0  0  0  0  0  0  0
   -0.5885    2.3908    0.1355 C   0  0  0  0  0  0  0  0  0  0  0  0
   -1.2185    3.1440    0.9090 O   0  0  0  0  0  0  0  0  0  0  0  0
   -0.7781    2.2389   -1.2715 C   0  0  0  0  0  0  0  0  0  0  0  0
    0.2897    1.6431   -1.7799 C   0  0  0  0  0  0  0  0  0  0  0  0
    0.4599    1.3421   -3.0538 O   0  0  0  0  0  0  0  0  0  0  0  0
    1.2292    1.3761   -0.7368 C   0  0  0  0  0  0  0  0  0  0  0  0
    2.3311    2.4373   -0.7589 C   0  0  0  0  0  0  0  0  0  0  0  0
    3.3370    2.1515    0.3579 C   0  0  0  0  0  0  0  0  0  0  0  0
    4.3597    3.1364    0.3374 O   0  0  0  0  0  0  0  0  0  0  0  0
    1.7563    3.7206   -0.5612 O   0  0  0  0  0  0  0  0  0  0  0  0
   -1.8403    2.6277   -1.9519 O   0  0  0  0  0  0  0  0  0  0  0  0
   -0.3260    1.6278   -3.5648 H   0  0  0  0  0  0  0  0  0  0  0  0
    1.7098    0.4034   -0.8416 H   0  0  0  0  0  0  0  0  0  0  0  0
    2.8407    2.4119   -1.7221 H   0  0  0  0  0  0  0  0  0  0  0  0
    2.8274    2.1769    1.3211 H   0  0  0  0  0  0  0  0  0  0  0  0
    3.7782    1.1664    0.2062 H   0  0  0  0  0  0  0  0  0  0  0  0
    5.0040    2.9533    1.0527 H   0  0  0  0  0  0  0  0  0  0  0  0
    2.4621    4.4004   -0.5754 H   0  0  0  0  0  0  0  0  0  0  0  0
   -2.4863    3.0403   -1.3414 H   0  0  0  0  0  0  0  0  0  0  0  0
  1  2  1  0
  1  7  1  0
  2  3  2  0
  2  4  1  0
  4  5  2  0
  4 12  1  0
  5  6  1  0
  5  7  1  0
  7  8  1  0
  8  9  1  0
  8 11  1  0
  9 10  1  0
  6 13  1  0
  7 14  1  0
  8 15  1  0
  9 16  1  0
  9 17  1  0
 10 18  1  0
 11 19  1  0
 12 20  1  0
M  END
