calcitriol
     RDKit          3D

 74 76  0  0  1  0  0  0  0  0999 V2000
    0.0177   -5.1542   -2.4593 C   0  0  0  0  0  0  0  0  0  0  0  0
   -0.8255   -3.9500   -1.8825 C   0  0  0  0  0  0  0  0  0  0  0  0
   -0.4111   -2.4996   -2.3560 C   0  0  0  0  0  0  0  0  0  0  0  0
    0.3671   -2.3941   -3.6239 C   0  0  0  0  0  0  0  0  0  0  0  0
    0.2885   -1.4025   -4.5480 C   0  0  0  0  0  0  0  0  0  0  0  0
   -0.5570   -0.3628   -4.8305 C   0  0  0  0  0  0  0  0  0  0  0  0
   -0.4428    0.3876   -5.9774 C   0  0  0  0  0  0  0  0  0  0  0  0
    0.5329    0.2084   -6.9881 C   0  0  0  0  0  0  0  0  0  0  0  0
    0.7522   -0.9397   -7.6555 C   0  0  0  0  0  0  0  0  0  0  0  0
    1.3020    1.3630   -7.4674 C   0  0  0  0  0  0  0  0  0  0  0  0
    0.2917    2.3042   -8.1420 C   0  0  0  0  0  0  0  0  0  0  0  0
   -0.9725    2.5739   -7.3036 C   0  0  0  0  0  0  0  0  0  0  0  0
   -1.3500    1.5345   -6.1961 C   0  0  0  0  0  0  0  0  0  0  0  0
   -0.7152    3.8142   -6.6836 O   0  0  0  0  0  0  0  0  0  0  0  0
    2.3549    1.1277   -8.4066 O   0  0  0  0  0  0  0  0  0  0  0  0
    1.3197   -3.5345   -3.8571 C   0  0  0  0  0  0  0  0  0  0  0  0
    2.2351   -3.5961   -5.1176 C   0  0  0  0  0  0  0  0  0  0  0  0
    2.6590   -5.0521   -5.2695 C   0  0  0  0  0  0  0  0  0  0  0  0
    1.7008   -5.9359   -4.4274 C   0  0  0  0  0  0  0  0  0  0  0  0
    1.3822   -7.2710   -5.2608 C   0  0  0  0  0  0  0  0  0  0  0  0
    0.3893   -8.1999   -4.5277 C   0  0  0  0  0  0  0  0  0  0  0  0
    2.6482   -8.1596   -5.5501 C   0  0  0  0  0  0  0  0  0  0  0  0
    2.6014   -9.0992   -6.7786 C   0  0  0  0  0  0  0  0  0  0  0  0
    3.9194   -9.8693   -6.8822 C   0  0  0  0  0  0  0  0  0  0  0  0
    3.8731  -10.7983   -8.0970 C   0  0  0  0  0  0  0  0  0  0  0  0
    5.1911  -11.5684   -8.2006 C   0  0  0  0  0  0  0  0  0  0  0  0
    2.7160  -11.7868   -7.9392 C   0  0  0  0  0  0  0  0  0  0  0  0
    3.6808  -10.0285   -9.2746 O   0  0  0  0  0  0  0  0  0  0  0  0
    0.5603   -4.9263   -3.9182 C   0  0  0  0  0  0  0  0  0  0  0  0
   -0.7073   -4.9518   -4.8622 C   0  0  0  0  0  0  0  0  0  0  0  0
   -0.5826   -6.0636   -2.4328 H   0  0  0  0  0  0  0  0  0  0  0  0
    0.8968   -5.2399   -1.8206 H   0  0  0  0  0  0  0  0  0  0  0  0
   -1.8825   -4.1127   -2.0931 H   0  0  0  0  0  0  0  0  0  0  0  0
   -0.7800   -3.9852   -0.7940 H   0  0  0  0  0  0  0  0  0  0  0  0
   -1.2992   -1.8711   -2.4214 H   0  0  0  0  0  0  0  0  0  0  0  0
    0.2735   -2.1660   -1.5761 H   0  0  0  0  0  0  0  0  0  0  0  0
    1.0095   -1.4116   -5.1676 H   0  0  0  0  0  0  0  0  0  0  0  0
   -1.2796   -0.1714   -4.1657 H   0  0  0  0  0  0  0  0  0  0  0  0
    0.2932   -1.7950   -7.5374 H   0  0  0  0  0  0  0  0  0  0  0  0
    1.4608   -0.9155   -8.3463 H   0  0  0  0  0  0  0  0  0  0  0  0
    1.7434    1.8556   -6.6093 H   0  0  0  0  0  0  0  0  0  0  0  0
    0.0048    1.8952   -9.1108 H   0  0  0  0  0  0  0  0  0  0  0  0
    0.7779    3.2491   -8.3846 H   0  0  0  0  0  0  0  0  0  0  0  0
   -1.8027    2.6471   -7.9984 H   0  0  0  0  0  0  0  0  0  0  0  0
   -2.3620    1.1691   -6.3705 H   0  0  0  0  0  0  0  0  0  0  0  0
   -1.4820    2.0490   -5.2443 H   0  0  0  0  0  0  0  0  0  0  0  0
   -1.4796    4.0642   -6.1236 H   0  0  0  0  0  0  0  0  0  0  0  0
    2.7813    1.9789   -8.6393 H   0  0  0  0  0  0  0  0  0  0  0  0
    2.0418   -3.4979   -3.0143 H   0  0  0  0  0  0  0  0  0  0  0  0
    1.6659   -3.2899   -5.9953 H   0  0  0  0  0  0  0  0  0  0  0  0
    3.0889   -2.9227   -5.0418 H   0  0  0  0  0  0  0  0  0  0  0  0
    2.5933   -5.3421   -6.3181 H   0  0  0  0  0  0  0  0  0  0  0  0
    3.6732   -5.2138   -4.9043 H   0  0  0  0  0  0  0  0  0  0  0  0
    2.3334   -6.2018   -3.5681 H   0  0  0  0  0  0  0  0  0  0  0  0
    0.8975   -6.9894   -6.2137 H   0  0  0  0  0  0  0  0  0  0  0  0
    0.2075   -9.0878   -5.1333 H   0  0  0  0  0  0  0  0  0  0  0  0
   -0.5505   -7.6719   -4.3658 H   0  0  0  0  0  0  0  0  0  0  0  0
    0.8101   -8.4955   -3.5666 H   0  0  0  0  0  0  0  0  0  0  0  0
    2.8977   -8.7373   -4.6601 H   0  0  0  0  0  0  0  0  0  0  0  0
    3.4899   -7.4930   -5.7381 H   0  0  0  0  0  0  0  0  0  0  0  0
    1.7770   -9.8034   -6.6662 H   0  0  0  0  0  0  0  0  0  0  0  0
    2.4538   -8.5083   -7.6826 H   0  0  0  0  0  0  0  0  0  0  0  0
    4.0670  -10.4602   -5.9783 H   0  0  0  0  0  0  0  0  0  0  0  0
    4.7438   -9.1651   -6.9946 H   0  0  0  0  0  0  0  0  0  0  0  0
    5.1581  -12.2303   -9.0660 H   0  0  0  0  0  0  0  0  0  0  0  0
    5.3387  -12.1593   -7.2967 H   0  0  0  0  0  0  0  0  0  0  0  0
    6.0155  -10.8642   -8.3130 H   0  0  0  0  0  0  0  0  0  0  0  0
    2.6830  -12.4487   -8.8047 H   0  0  0  0  0  0  0  0  0  0  0  0
    1.7770  -11.2382   -7.8654 H   0  0  0  0  0  0  0  0  0  0  0  0
    2.8635  -12.3777   -7.0353 H   0  0  0  0  0  0  0  0  0  0  0  0
    3.6512  -10.6236  -10.0527 H   0  0  0  0  0  0  0  0  0  0  0  0
   -1.4560   -4.2557   -4.4841 H   0  0  0  0  0  0  0  0  0  0  0  0
   -1.1248   -5.9585   -4.8828 H   0  0  0  0  0  0  0  0  0  0  0  0
   -0.4153   -4.6589   -5.8706 H   0  0  0  0  0  0  0  0  0  0  0  0
  1  2  1  0
  1 29  1  0
  2  3  1  0
  3  4  1  0
  4  5  2  0
  4 16  1  0
  5  6  1  0
  6  7  2  0
  7  8  1  0
  7 13  1  0
  8  9  2  0
  8 10  1  0
 10 11  1  0
 10 15  1  0
 11 12  1  0
 12 13  1  0
 12 14  1  0
 16 17  1  0
 16 29  1  0
 17 18  1  0
 18 19  1  0
 19 20  1  0
 19 29  1  0
 20 21  1  0
 20 22  1  0
 22 23  1  0
 23 24  1  0
 24 25  1  0
 25 26  1  0
 25 27  1  0
 25 28  1  0
 29 30  1  0
  1 31  1  0
  1 32  1  0
  2 33  1  0
  2 34  1  0
  3 35  1  0
  3 36  1  0
  5 37  1  0
  6 38  1  0
  9 39  1  0
  9 40  1  0
 10 41  1  0
 11 42  1  0
 11 43  1  0
 12 44  1  0
 13 45  1  0
 13 46  1  0
 14 47  1  0
 15 48  1  0
 16 49  1  0
 17 50  1  0
 17 51  1  0
 18 52  1  0
 18 53  1  0
 19 54  1  0
 20 55  1  0
 21 56  1  0
 21 57  1  0
 21 58  1  0
 22 59  1  0
 22 60  1  0
 23 61  1  0
 23 62  1  0
 24 63  1  0
 24 64  1  0
 26 65  1  0
 26 66  1  0
 26 67  1  0
 27 68  1  0
 27 69  1  0
 27 70  1  0
 28 71  1  0
 30 72  1  0
 30 73  1  0
 30 74  1  0
M  END
