lutein
     RDKit          3D

 98 99  0  0  1  0  0  0  0  0999 V2000
   -0.8402   -1.5856   11.2794 C   0  0  0  0  0  0  0  0  0  0  0  0
   -1.7220   -2.4948   11.8017 C   0  0  0  0  0  0  0  0  0  0  0  0
   -2.7569   -2.0350   12.7161 C   0  0  0  0  0  0  0  0  0  0  0  0
   -2.5543   -0.6232   13.3085 C   0  0  0  0  0  0  0  0  0  0  0  0
   -2.1377    0.3751   12.2014 C   0  0  0  0  0  0  0  0  0  0  0  0
   -0.8759   -0.0756   11.3785 C   0  0  0  0  0  0  0  0  0  0  0  0
    0.4490    0.4444   12.0748 C   0  0  0  0  0  0  0  0  0  0  0  0
   -0.9571    0.6522    9.9482 C   0  0  0  0  0  0  0  0  0  0  0  0
   -1.5779   -0.6870   14.3448 O   0  0  0  0  0  0  0  0  0  0  0  0
   -1.7861   -3.9633   11.5143 C   0  0  0  0  0  0  0  0  0  0  0  0
    0.1628   -2.0193   10.5235 C   0  0  0  0  0  0  0  0  0  0  0  0
    1.0264   -2.9794   10.8462 C   0  0  0  0  0  0  0  0  0  0  0  0
    1.8903   -3.4714    9.9386 C   0  0  0  0  0  0  0  0  0  0  0  0
    2.2444   -4.7588   10.1780 C   0  0  0  0  0  0  0  0  0  0  0  0
    3.1505   -5.3459    9.4647 C   0  0  0  0  0  0  0  0  0  0  0  0
    3.8140   -6.5257    9.5844 C   0  0  0  0  0  0  0  0  0  0  0  0
    4.8897   -6.9788    8.7451 C   0  0  0  0  0  0  0  0  0  0  0  0
    5.3750   -8.1612    9.0662 C   0  0  0  0  0  0  0  0  0  0  0  0
    6.3410   -8.7058    8.3631 C   0  0  0  0  0  0  0  0  0  0  0  0
    6.7765   -9.8862    8.7211 C   0  0  0  0  0  0  0  0  0  0  0  0
    7.7422  -10.4188    8.0217 C   0  0  0  0  0  0  0  0  0  0  0  0
    8.2642  -11.6116    8.3139 C   0  0  0  0  0  0  0  0  0  0  0  0
    9.2651  -11.9621    7.4470 C   0  0  0  0  0  0  0  0  0  0  0  0
    9.8746  -13.1157    7.6164 C   0  0  0  0  0  0  0  0  0  0  0  0
   10.7784  -13.6975    6.8846 C   0  0  0  0  0  0  0  0  0  0  0  0
   11.0826  -15.0033    7.0373 C   0  0  0  0  0  0  0  0  0  0  0  0
   12.2216  -15.3850    6.4280 C   0  0  0  0  0  0  0  0  0  0  0  0
   12.6065  -16.6527    6.2732 C   0  0  0  0  0  0  0  0  0  0  0  0
   13.9773  -16.9971    6.0516 C   0  0  0  0  0  0  0  0  0  0  0  0
   14.4333  -18.1884    6.8343 C   0  0  0  0  0  0  0  0  0  0  0  0
   15.7051  -18.5660    6.5991 C   0  0  0  0  0  0  0  0  0  0  0  0
   16.5422  -17.8963    5.6137 C   0  0  0  0  0  0  0  0  0  0  0  0
   15.8199  -17.3759    4.3394 C   0  0  0  0  0  0  0  0  0  0  0  0
   14.3105  -17.0850    4.5011 C   0  0  0  0  0  0  0  0  0  0  0  0
   13.5326  -18.1822    3.7318 C   0  0  0  0  0  0  0  0  0  0  0  0
   14.0801  -15.8195    3.6372 C   0  0  0  0  0  0  0  0  0  0  0  0
   17.2077  -16.8183    6.2582 O   0  0  0  0  0  0  0  0  0  0  0  0
   13.6618  -18.9571    7.8238 C   0  0  0  0  0  0  0  0  0  0  0  0
   10.3879  -15.9392    7.9714 C   0  0  0  0  0  0  0  0  0  0  0  0
    7.7571  -12.4535    9.4625 C   0  0  0  0  0  0  0  0  0  0  0  0
    5.3614   -6.1237    7.6100 C   0  0  0  0  0  0  0  0  0  0  0  0
    2.3732   -2.6856    8.7503 C   0  0  0  0  0  0  0  0  0  0  0  0
   -2.8216   -2.7148   13.5710 H   0  0  0  0  0  0  0  0  0  0  0  0
   -3.7155   -2.0612   12.1919 H   0  0  0  0  0  0  0  0  0  0  0  0
   -3.4886   -0.2825   13.7703 H   0  0  0  0  0  0  0  0  0  0  0  0
   -3.0035    0.4826   11.5410 H   0  0  0  0  0  0  0  0  0  0  0  0
   -1.9657    1.3521   12.6536 H   0  0  0  0  0  0  0  0  0  0  0  0
    1.3531    0.1574   11.5301 H   0  0  0  0  0  0  0  0  0  0  0  0
    0.5556    0.0529   13.0892 H   0  0  0  0  0  0  0  0  0  0  0  0
    0.4627    1.5329   12.1267 H   0  0  0  0  0  0  0  0  0  0  0  0
   -0.0838    0.4815    9.2902 H   0  0  0  0  0  0  0  0  0  0  0  0
   -1.8319    0.3197    9.3803 H   0  0  0  0  0  0  0  0  0  0  0  0
   -1.0182    1.7348   10.0528 H   0  0  0  0  0  0  0  0  0  0  0  0
   -1.4660    0.2389   14.6478 H   0  0  0  0  0  0  0  0  0  0  0  0
   -2.8368   -4.3092   11.4040 H   0  0  0  0  0  0  0  0  0  0  0  0
   -1.3730   -4.4973   12.3697 H   0  0  0  0  0  0  0  0  0  0  0  0
   -1.1661   -4.3159   10.6726 H   0  0  0  0  0  0  0  0  0  0  0  0
    0.2682   -1.5449    9.6567 H   0  0  0  0  0  0  0  0  0  0  0  0
    0.9454   -3.4274   11.7233 H   0  0  0  0  0  0  0  0  0  0  0  0
    1.8223   -5.2833   10.9055 H   0  0  0  0  0  0  0  0  0  0  0  0
    3.5191   -4.8780    8.7048 H   0  0  0  0  0  0  0  0  0  0  0  0
    3.5447   -7.1050   10.3486 H   0  0  0  0  0  0  0  0  0  0  0  0
    4.9880   -8.6529    9.8514 H   0  0  0  0  0  0  0  0  0  0  0  0
    6.7353   -8.2386    7.5756 H   0  0  0  0  0  0  0  0  0  0  0  0
    6.3802  -10.3474    9.5081 H   0  0  0  0  0  0  0  0  0  0  0  0
    8.1051   -9.9078    7.2379 H   0  0  0  0  0  0  0  0  0  0  0  0
    9.5414  -11.3709    6.6839 H   0  0  0  0  0  0  0  0  0  0  0  0
    9.6367  -13.6038    8.4148 H   0  0  0  0  0  0  0  0  0  0  0  0
   11.3040  -13.1182    6.2751 H   0  0  0  0  0  0  0  0  0  0  0  0
   12.8553  -14.6724    6.1273 H   0  0  0  0  0  0  0  0  0  0  0  0
   11.9534  -17.3926    6.3800 H   0  0  0  0  0  0  0  0  0  0  0  0
   14.5680  -16.1682    6.4796 H   0  0  0  0  0  0  0  0  0  0  0  0
   16.1372  -19.3153    7.1030 H   0  0  0  0  0  0  0  0  0  0  0  0
   17.2749  -18.6077    5.2669 H   0  0  0  0  0  0  0  0  0  0  0  0
   15.9683  -18.0830    3.5233 H   0  0  0  0  0  0  0  0  0  0  0  0
   16.3295  -16.4515    4.0676 H   0  0  0  0  0  0  0  0  0  0  0  0
   12.4617  -18.0033    3.8277 H   0  0  0  0  0  0  0  0  0  0  0  0
   13.7764  -19.1597    4.1477 H   0  0  0  0  0  0  0  0  0  0  0  0
   13.8126  -18.1553    2.6787 H   0  0  0  0  0  0  0  0  0  0  0  0
   13.0301  -15.5315    3.6874 H   0  0  0  0  0  0  0  0  0  0  0  0
   14.6987  -15.0049    4.0139 H   0  0  0  0  0  0  0  0  0  0  0  0
   14.3496  -16.0318    2.6026 H   0  0  0  0  0  0  0  0  0  0  0  0
   17.7598  -17.1657    6.9896 H   0  0  0  0  0  0  0  0  0  0  0  0
   12.7742  -19.3742    7.3481 H   0  0  0  0  0  0  0  0  0  0  0  0
   13.3617  -18.3004    8.6404 H   0  0  0  0  0  0  0  0  0  0  0  0
   14.2780  -19.7662    8.2160 H   0  0  0  0  0  0  0  0  0  0  0  0
    9.3311  -15.9954    7.7102 H   0  0  0  0  0  0  0  0  0  0  0  0
   10.4906  -15.5751    8.9937 H   0  0  0  0  0  0  0  0  0  0  0  0
   10.8349  -16.9301    7.8920 H   0  0  0  0  0  0  0  0  0  0  0  0
    7.3952  -13.4083    9.0811 H   0  0  0  0  0  0  0  0  0  0  0  0
    6.9430  -11.9307    9.9645 H   0  0  0  0  0  0  0  0  0  0  0  0
    8.5675  -12.6286   10.1701 H   0  0  0  0  0  0  0  0  0  0  0  0
    4.5380   -5.9541    6.9162 H   0  0  0  0  0  0  0  0  0  0  0  0
    5.7130   -5.1674    7.9973 H   0  0  0  0  0  0  0  0  0  0  0  0
    6.1767   -6.6270    7.0903 H   0  0  0  0  0  0  0  0  0  0  0  0
    2.0942   -3.2050    7.8336 H   0  0  0  0  0  0  0  0  0  0  0  0
    1.9176   -1.6954    8.7600 H   0  0  0  0  0  0  0  0  0  0  0  0
    3.4578   -2.5870    8.7964 H   0  0  0  0  0  0  0  0  0  0  0  0
  1  2  2  0
  1  6  1  0
  1 11  1  0
  2  3  1  0
  2 10  1  0
  3  4  1  0
  4  5  1  0
  4  9  1  0
  5  6  1  0
  6  7  1  0
  6  8  1  0
 11 12  2  0
 12 13  1  0
 13 14  2  0
 13 42  1  0
 14 15  1  0
 15 16  2  0
 16 17  1  0
 17 18  2  0
 17 41  1  0
 18 19  1  0
 19 20  2  0
 20 21  1  0
 21 22  2  0
 22 23  1  0
 22 40  1  0
 23 24  2  0
 24 25  1  0
 25 26  2  0
 26 27  1  0
 26 39  1  0
 27 28  2  0
 28 29  1  0
 29 30  1  0
 29 34  1  0
 30 31  2  0
 30 38  1  0
 31 32  1  0
 32 33  1  0
 32 37  1  0
 33 34  1  0
 34 35  1  0
 34 36  1  0
  3 43  1  0
  3 44  1  0
  4 45  1  0
  5 46  1  0
  5 47  1  0
  7 48  1  0
  7 49  1  0
  7 50  1  0
  8 51  1  0
  8 52  1  0
  8 53  1  0
  9 54  1  0
 10 55  1  0
 10 56  1  0
 10 57  1  0
 11 58  1  0
 12 59  1  0
 14 60  1  0
 15 61  1  0
 16 62  1  0
 18 63  1  0
 19 64  1  0
 20 65  1  0
 21 66  1  0
 23 67  1  0
 24 68  1  0
 25 69  1  0
 27 70  1  0
 28 71  1  0
 29 72  1  0
 31 73  1  0
 32 74  1  0
 33 75  1  0
 33 76  1  0
 35 77  1  0
 35 78  1  0
 35 79  1  0
 36 80  1  0
 36 81  1  0
 36 82  1  0
 37 83  1  0
 38 84  1  0
 38 85  1  0
 38 86  1  0
 39 87  1  0
 39 88  1  0
 39 89  1  0
 40 90  1  0
 40 91  1  0
 40 92  1  0
 41 93  1  0
 41 94  1  0
 41 95  1  0
 42 96  1  0
 42 97  1  0
 42 98  1  0
M  END
