succinic_acid
     RDKit          3D

 14 13  0  0  0  0  0  0  0  0999 V2000
   -2.4621    0.6176    0.0000 O   0  0  0  0  0  0  0  0  0  0  0  0
   -1.1259    0.8102    0.0000 C   0  0  0  0  0  0  0  0  0  0  0  0
   -0.6617    1.9708    0.0000 O   0  0  0  0  0  0  0  0  0  0  0  0
   -0.2230   -0.3371   -0.0000 C   0  0  0  0  0  0  0  0  0  0  0  0
    1.2260    0.1542    0.0000 C   0  0  0  0  0  0  0  0  0  0  0  0
    2.1289   -0.9931   -0.0000 C   0  0  0  0  0  0  0  0  0  0  0  0
    3.3662   -0.8148    0.0000 O   0  0  0  0  0  0  0  0  0  0  0  0
    1.6277   -2.2466   -0.0000 O   0  0  0  0  0  0  0  0  0  0  0  0
   -3.0519    1.2751    0.4244 H   0  0  0  0  0  0  0  0  0  0  0  0
   -0.4020   -0.9404   -0.8900 H   0  0  0  0  0  0  0  0  0  0  0  0
   -0.4020   -0.9404    0.8900 H   0  0  0  0  0  0  0  0  0  0  0  0
    1.4051    0.7575   -0.8900 H   0  0  0  0  0  0  0  0  0  0  0  0
    1.4051    0.7575    0.8900 H   0  0  0  0  0  0  0  0  0  0  0  0
    2.2337   -3.0167   -0.0000 H   0  0  0  0  0  0  0  0  0  0  0  0
  1  2  1  0
  2  3  2  0
  2  4  1  0
  4  5  1  0
  5  6  1  0
  6  7  2  0
  6  8  1  0
  1  9  1  0
  4 10  1  0
  4 11  1  0
  5 12  1  0
  5 13  1  0
  8 14  1  0
M  END
