phosphatidyl_serine
     RDKit          3D

 49 48  0  0  1  0  0  0  0  0999 V2000
    1.8785   -0.6619    2.0222 P   0  0  0  0  0  0  0  0  0  0  0  0
    3.2619   -1.1442    1.8510 O   0  0  0  0  0  0  0  0  0  0  0  0
    1.7117    0.6141    1.0919 O   0  0  0  0  0  0  0  0  0  0  0  0
    0.3528    1.0414    1.1030 C   0  0  0  0  0  0  0  0  0  0  0  0
    0.1524    2.2150    0.1304 C   0  0  0  0  0  0  0  0  0  0  0  0
   -1.1049    2.8533    0.4563 O   0  0  0  0  0  0  0  0  0  0  0  0
   -1.3378    3.7932    1.4593 C   0  0  0  0  0  0  0  0  0  0  0  0
   -2.5234    4.2123    1.5316 O   0  0  0  0  0  0  0  0  0  0  0  0
   -0.3910    4.4152    2.4534 C   0  0  0  0  0  0  0  0  0  0  0  0
    1.0714    3.9734    2.7424 C   0  0  0  0  0  0  0  0  0  0  0  0
    1.6722    4.8745    3.8232 C   0  0  0  0  0  0  0  0  0  0  0  0
    0.3169    1.8734   -1.3599 C   0  0  0  0  0  0  0  0  0  0  0  0
    0.2347    3.1559   -1.9692 O   0  0  0  0  0  0  0  0  0  0  0  0
    0.4764    2.9188   -3.3317 C   0  0  0  0  0  0  0  0  0  0  0  0
    0.4704    3.8704   -4.1423 O   0  0  0  0  0  0  0  0  0  0  0  0
    0.7347    1.5609   -3.8019 C   0  0  0  0  0  0  0  0  0  0  0  0
    2.1183    1.5010   -4.4524 C   0  0  0  0  0  0  0  0  0  0  0  0
    0.8230   -1.7670    1.5685 O   0  0  0  0  0  0  0  0  0  0  0  0
    0.9640   -2.9050    2.4095 C   0  0  0  0  0  0  0  0  0  0  0  0
   -0.0417   -3.9700    1.9850 C   0  0  0  0  0  0  0  0  0  0  0  0
    0.0981   -5.1431    2.8462 N   0  0  0  0  0  0  0  0  0  0  0  0
    0.2096   -4.3515    0.5983 C   0  0  0  0  0  0  0  0  0  0  0  0
   -0.5059   -5.2166    0.0486 O   0  0  0  0  0  0  0  0  0  0  0  0
    1.2147   -3.7699   -0.0902 O   0  0  0  0  0  0  0  0  0  0  0  0
    1.6241   -0.2206    3.5277 O   0  0  0  0  0  0  0  0  0  0  0  0
   -0.2912    0.2123    0.8097 H   0  0  0  0  0  0  0  0  0  0  0  0
    0.1124    1.3379    2.1240 H   0  0  0  0  0  0  0  0  0  0  0  0
    0.9562    2.9448    0.3072 H   0  0  0  0  0  0  0  0  0  0  0  0
   -0.9125    4.5838    3.3955 H   0  0  0  0  0  0  0  0  0  0  0  0
   -0.3205    5.4564    2.1385 H   0  0  0  0  0  0  0  0  0  0  0  0
    1.0772    2.9393    3.0870 H   0  0  0  0  0  0  0  0  0  0  0  0
    1.6628    4.0558    1.8305 H   0  0  0  0  0  0  0  0  0  0  0  0
    2.6975    4.5647    4.0258 H   0  0  0  0  0  0  0  0  0  0  0  0
    1.0808    4.7921    4.7350 H   0  0  0  0  0  0  0  0  0  0  0  0
    1.6665    5.9086    3.4786 H   0  0  0  0  0  0  0  0  0  0  0  0
   -0.5234    1.2611   -1.6873 H   0  0  0  0  0  0  0  0  0  0  0  0
    1.2624    1.3845   -1.5945 H   0  0  0  0  0  0  0  0  0  0  0  0
   -0.0230    1.2793   -4.5330 H   0  0  0  0  0  0  0  0  0  0  0  0
    0.6997    0.8715   -2.9583 H   0  0  0  0  0  0  0  0  0  0  0  0
    2.3111    0.4873   -4.8034 H   0  0  0  0  0  0  0  0  0  0  0  0
    2.1533    2.1904   -5.2959 H   0  0  0  0  0  0  0  0  0  0  0  0
    2.8760    1.7827   -3.7212 H   0  0  0  0  0  0  0  0  0  0  0  0
    0.7745   -2.6180    3.4439 H   0  0  0  0  0  0  0  0  0  0  0  0
    1.9865   -3.2765    2.3415 H   0  0  0  0  0  0  0  0  0  0  0  0
   -1.0524   -3.5717    2.0748 H   0  0  0  0  0  0  0  0  0  0  0  0
   -0.0779   -4.8761    3.8169 H   0  0  0  0  0  0  0  0  0  0  0  0
   -0.5759   -5.8568    2.5617 H   0  0  0  0  0  0  0  0  0  0  0  0
    1.3834   -4.0260   -1.0210 H   0  0  0  0  0  0  0  0  0  0  0  0
    2.2440    0.5001    3.7660 H   0  0  0  0  0  0  0  0  0  0  0  0
  1  2  2  0
  1  3  1  0
  1 18  1  0
  1 25  1  0
  3  4  1  0
  4  5  1  0
  5  6  1  0
  5 12  1  0
  6  7  1  0
  7  8  2  0
  7  9  1  0
  9 10  1  0
 10 11  1  0
 12 13  1  0
 13 14  1  0
 14 15  2  0
 14 16  1  0
 16 17  1  0
 18 19  1  0
 19 20  1  0
 20 21  1  0
 20 22  1  0
 22 23  2  0
 22 24  1  0
  4 26  1  0
  4 27  1  0
  5 28  1  0
  9 29  1  0
  9 30  1  0
 10 31  1  0
 10 32  1  0
 11 33  1  0
 11 34  1  0
 11 35  1  0
 12 36  1  0
 12 37  1  0
 16 38  1  0
 16 39  1  0
 17 40  1  0
 17 41  1  0
 17 42  1  0
 19 43  1  0
 19 44  1  0
 20 45  1  0
 21 46  1  0
 21 47  1  0
 24 48  1  0
 25 49  1  0
M  END
