glycine
     RDKit          3D

 10  9  0  0  0  0  0  0  0  0999 V2000
    1.2713    0.0869    0.3858 C   0  0  0  0  0  0  0  0  0  0  0  0
    2.1090    0.5884   -0.3946 O   0  0  0  0  0  0  0  0  0  0  0  0
   -0.1489    0.3824    0.2204 C   0  0  0  0  0  0  0  0  0  0  0  0
   -0.8808   -0.8606   -0.0178 N   0  0  0  0  0  0  0  0  0  0  0  0
    1.6796   -0.7280    1.3816 O   0  0  0  0  0  0  0  0  0  0  0  0
   -0.5283    0.8600    1.1237 H   0  0  0  0  0  0  0  0  0  0  0  0
   -0.2842    1.0521   -0.6289 H   0  0  0  0  0  0  0  0  0  0  0  0
   -1.8749   -0.6537   -0.1336 H   0  0  0  0  0  0  0  0  0  0  0  0
   -0.7540   -1.4885    0.7785 H   0  0  0  0  0  0  0  0  0  0  0  0
    2.4854   -1.2742    1.2685 H   0  0  0  0  0  0  0  0  0  0  0  0
  1  2  2  0
  1  3  1  0
  1  5  1  0
  3  4  1  0
  3  6  1  0
  3  7  1  0
  4  8  1  0
  4  9  1  0
  5 10  1  0
M  END
