calcifediol
     RDKit          3D

 73 75  0  0  1  0  0  0  0  0999 V2000
   -5.7806   -3.2869   -4.0412 C   0  0  0  0  0  0  0  0  0  0  0  0
   -4.6325   -4.0676   -4.7696 C   0  0  0  0  0  0  0  0  0  0  0  0
   -3.8483   -3.2670   -5.8808 C   0  0  0  0  0  0  0  0  0  0  0  0
   -3.8782   -1.7892   -5.8017 C   0  0  0  0  0  0  0  0  0  0  0  0
   -2.8543   -0.9498   -6.1234 C   0  0  0  0  0  0  0  0  0  0  0  0
   -1.5225   -0.9906   -6.3861 C   0  0  0  0  0  0  0  0  0  0  0  0
   -0.7550    0.1430   -6.5490 C   0  0  0  0  0  0  0  0  0  0  0  0
   -1.2699    1.4707   -6.5109 C   0  0  0  0  0  0  0  0  0  0  0  0
   -2.0045    2.0586   -5.5624 C   0  0  0  0  0  0  0  0  0  0  0  0
   -0.9383    2.4498   -7.5347 C   0  0  0  0  0  0  0  0  0  0  0  0
    0.5807    2.6730   -7.4568 C   0  0  0  0  0  0  0  0  0  0  0  0
    1.3619    1.3366   -7.4011 C   0  0  0  0  0  0  0  0  0  0  0  0
    0.6889    0.0191   -6.8614 C   0  0  0  0  0  0  0  0  0  0  0  0
    1.8003    1.0954   -8.7174 O   0  0  0  0  0  0  0  0  0  0  0  0
   -5.1675   -1.2094   -5.2982 C   0  0  0  0  0  0  0  0  0  0  0  0
   -5.4178    0.3201   -5.1424 C   0  0  0  0  0  0  0  0  0  0  0  0
   -6.6587    0.4591   -4.2790 C   0  0  0  0  0  0  0  0  0  0  0  0
   -6.7935   -0.8491   -3.4549 C   0  0  0  0  0  0  0  0  0  0  0  0
   -7.1447   -0.4590   -1.9425 C   0  0  0  0  0  0  0  0  0  0  0  0
   -7.2748   -1.7010   -1.0416 C   0  0  0  0  0  0  0  0  0  0  0  0
   -8.4957    0.3276   -1.7589 C   0  0  0  0  0  0  0  0  0  0  0  0
   -8.7615    1.1842   -0.4930 C   0  0  0  0  0  0  0  0  0  0  0  0
  -10.1468    1.8260   -0.5932 C   0  0  0  0  0  0  0  0  0  0  0  0
  -10.4090    2.6708    0.6552 C   0  0  0  0  0  0  0  0  0  0  0  0
  -11.7942    3.3127    0.5549 C   0  0  0  0  0  0  0  0  0  0  0  0
  -10.3490    1.7785    1.8966 C   0  0  0  0  0  0  0  0  0  0  0  0
   -9.4224    3.6872    0.7547 O   0  0  0  0  0  0  0  0  0  0  0  0
   -5.5299   -1.7467   -3.8546 C   0  0  0  0  0  0  0  0  0  0  0  0
   -4.3647   -1.6226   -2.7974 C   0  0  0  0  0  0  0  0  0  0  0  0
   -6.7191   -3.4404   -4.5740 H   0  0  0  0  0  0  0  0  0  0  0  0
   -5.9589   -3.7408   -3.0664 H   0  0  0  0  0  0  0  0  0  0  0  0
   -5.0329   -4.9864   -5.1980 H   0  0  0  0  0  0  0  0  0  0  0  0
   -3.8962   -4.2884   -3.9968 H   0  0  0  0  0  0  0  0  0  0  0  0
   -4.1887   -3.5850   -6.8662 H   0  0  0  0  0  0  0  0  0  0  0  0
   -2.8078   -3.5908   -5.9058 H   0  0  0  0  0  0  0  0  0  0  0  0
   -3.1738   -0.0643   -6.1698 H   0  0  0  0  0  0  0  0  0  0  0  0
   -1.1141   -1.8938   -6.4516 H   0  0  0  0  0  0  0  0  0  0  0  0
   -2.3248    1.6787   -4.7158 H   0  0  0  0  0  0  0  0  0  0  0  0
   -2.2587    2.9995   -5.7359 H   0  0  0  0  0  0  0  0  0  0  0  0
   -1.4544    3.3862   -7.3227 H   0  0  0  0  0  0  0  0  0  0  0  0
   -1.1426    2.0172   -8.5141 H   0  0  0  0  0  0  0  0  0  0  0  0
    0.8157    3.2683   -6.5745 H   0  0  0  0  0  0  0  0  0  0  0  0
    0.9192    3.2752   -8.3000 H   0  0  0  0  0  0  0  0  0  0  0  0
    2.1952    1.5592   -6.7558 H   0  0  0  0  0  0  0  0  0  0  0  0
    0.8371   -0.7859   -7.5813 H   0  0  0  0  0  0  0  0  0  0  0  0
    1.1704   -0.3109   -5.9408 H   0  0  0  0  0  0  0  0  0  0  0  0
    1.0249    1.0301   -9.3131 H   0  0  0  0  0  0  0  0  0  0  0  0
   -5.9212   -1.5148   -6.0453 H   0  0  0  0  0  0  0  0  0  0  0  0
   -5.6058    0.7592   -6.1222 H   0  0  0  0  0  0  0  0  0  0  0  0
   -4.5721    0.7625   -4.6159 H   0  0  0  0  0  0  0  0  0  0  0  0
   -7.5341    0.5782   -4.9174 H   0  0  0  0  0  0  0  0  0  0  0  0
   -6.5356    1.3336   -3.6401 H   0  0  0  0  0  0  0  0  0  0  0  0
   -7.6759   -1.2904   -3.9239 H   0  0  0  0  0  0  0  0  0  0  0  0
   -6.3247    0.1354   -1.5242 H   0  0  0  0  0  0  0  0  0  0  0  0
   -7.5136   -1.3889   -0.0249 H   0  0  0  0  0  0  0  0  0  0  0  0
   -8.0698   -2.3431   -1.4208 H   0  0  0  0  0  0  0  0  0  0  0  0
   -6.3332   -2.2500   -1.0415 H   0  0  0  0  0  0  0  0  0  0  0  0
   -9.3349   -0.3483   -1.9230 H   0  0  0  0  0  0  0  0  0  0  0  0
   -8.5410    1.0526   -2.5715 H   0  0  0  0  0  0  0  0  0  0  0  0
   -8.7188    0.5485    0.3914 H   0  0  0  0  0  0  0  0  0  0  0  0
   -8.0042    1.9644   -0.4166 H   0  0  0  0  0  0  0  0  0  0  0  0
  -10.9041    1.0458   -0.6696 H   0  0  0  0  0  0  0  0  0  0  0  0
  -10.1895    2.4617   -1.4776 H   0  0  0  0  0  0  0  0  0  0  0  0
  -11.9810    3.9145    1.4443 H   0  0  0  0  0  0  0  0  0  0  0  0
  -12.5515    2.5324    0.4785 H   0  0  0  0  0  0  0  0  0  0  0  0
  -11.8369    3.9483   -0.3295 H   0  0  0  0  0  0  0  0  0  0  0  0
  -10.5358    2.3803    2.7860 H   0  0  0  0  0  0  0  0  0  0  0  0
  -11.1063    0.9983    1.8202 H   0  0  0  0  0  0  0  0  0  0  0  0
   -9.3621    1.3212    1.9680 H   0  0  0  0  0  0  0  0  0  0  0  0
   -9.5903    4.2283    1.5544 H   0  0  0  0  0  0  0  0  0  0  0  0
   -3.5262   -2.2471   -3.1058 H   0  0  0  0  0  0  0  0  0  0  0  0
   -4.7228   -1.9511   -1.8217 H   0  0  0  0  0  0  0  0  0  0  0  0
   -4.0403   -0.5839   -2.7345 H   0  0  0  0  0  0  0  0  0  0  0  0
  1  2  1  0
  1 28  1  0
  2  3  1  0
  3  4  1  0
  4  5  2  0
  4 15  1  0
  5  6  1  0
  6  7  2  0
  7  8  1  0
  7 13  1  0
  8  9  2  0
  8 10  1  0
 10 11  1  0
 11 12  1  0
 12 13  1  0
 12 14  1  0
 15 16  1  0
 15 28  1  0
 16 17  1  0
 17 18  1  0
 18 19  1  0
 18 28  1  0
 19 20  1  0
 19 21  1  0
 21 22  1  0
 22 23  1  0
 23 24  1  0
 24 25  1  0
 24 26  1  0
 24 27  1  0
 28 29  1  0
  1 30  1  0
  1 31  1  0
  2 32  1  0
  2 33  1  0
  3 34  1  0
  3 35  1  0
  5 36  1  0
  6 37  1  0
  9 38  1  0
  9 39  1  0
 10 40  1  0
 10 41  1  0
 11 42  1  0
 11 43  1  0
 12 44  1  0
 13 45  1  0
 13 46  1  0
 14 47  1  0
 15 48  1  0
 16 49  1  0
 16 50  1  0
 17 51  1  0
 17 52  1  0
 18 53  1  0
 19 54  1  0
 20 55  1  0
 20 56  1  0
 20 57  1  0
 21 58  1  0
 21 59  1  0
 22 60  1  0
 22 61  1  0
 23 62  1  0
 23 63  1  0
 25 64  1  0
 25 65  1  0
 25 66  1  0
 26 67  1  0
 26 68  1  0
 26 69  1  0
 27 70  1  0
 29 71  1  0
 29 72  1  0
 29 73  1  0
M  END
