pyridoxal
     RDKit          3D

 21 21  0  0  0  0  0  0  0  0999 V2000
   -0.0361   -1.4656   -0.1285 O   0  0  0  0  0  0  0  0  0  0  0  0
    0.3500   -0.1752   -0.0370 C   0  0  0  0  0  0  0  0  0  0  0  0
    1.7229    0.1699    0.2051 C   0  0  0  0  0  0  0  0  0  0  0  0
    2.1566    1.5343    0.3063 C   0  0  0  0  0  0  0  0  0  0  0  0
    3.5570    1.8655    0.5528 C   0  0  0  0  0  0  0  0  0  0  0  0
    4.0549    2.6472   -0.5230 O   0  0  0  0  0  0  0  0  0  0  0  0
    1.1677    2.5596    0.1570 C   0  0  0  0  0  0  0  0  0  0  0  0
   -0.1565    2.2015   -0.0769 N   0  0  0  0  0  0  0  0  0  0  0  0
   -0.5997    0.8914   -0.1787 C   0  0  0  0  0  0  0  0  0  0  0  0
   -2.0092    0.6021   -0.4259 C   0  0  0  0  0  0  0  0  0  0  0  0
    2.6594   -0.8477    0.3456 C   0  0  0  0  0  0  0  0  0  0  0  0
    2.4974   -1.9331   -0.2528 O   0  0  0  0  0  0  0  0  0  0  0  0
   -0.8062   -1.5342   -0.7306 H   0  0  0  0  0  0  0  0  0  0  0  0
    3.6386    2.4310    1.4811 H   0  0  0  0  0  0  0  0  0  0  0  0
    4.1386    0.9473    0.6344 H   0  0  0  0  0  0  0  0  0  0  0  0
    4.9949    2.8696   -0.3576 H   0  0  0  0  0  0  0  0  0  0  0  0
    1.4315    3.5427    0.2216 H   0  0  0  0  0  0  0  0  0  0  0  0
   -2.6124    1.0163    0.3820 H   0  0  0  0  0  0  0  0  0  0  0  0
   -2.3118    1.0509   -1.3721 H   0  0  0  0  0  0  0  0  0  0  0  0
   -2.1559   -0.4770   -0.4723 H   0  0  0  0  0  0  0  0  0  0  0  0
    3.4788   -0.7086    0.9369 H   0  0  0  0  0  0  0  0  0  0  0  0
  1  2  1  0
  2  3  2  0
  2  9  1  0
  3  4  1  0
  3 11  1  0
  4  5  1  0
  4  7  2  0
  5  6  1  0
  7  8  1  0
  8  9  2  0
  9 10  1  0
 11 12  2  0
  1 13  1  0
  5 14  1  0
  5 15  1  0
  6 16  1  0
  7 17  1  0
 10 18  1  0
 10 19  1  0
 10 20  1  0
 11 21  1  0
M  END
