leucine
     RDKit          3D

 22 21  0  0  1  0  0  0  0  0999 V2000
    3.2633   -1.1995   -0.5622 O   0  0  0  0  0  0  0  0  0  0  0  0
    1.9325   -1.0661   -0.3783 C   0  0  0  0  0  0  0  0  0  0  0  0
    1.1610   -1.9960   -0.6985 O   0  0  0  0  0  0  0  0  0  0  0  0
    1.3945    0.1643    0.1946 C   0  0  0  0  0  0  0  0  0  0  0  0
   -0.1284    0.0568    0.2949 C   0  0  0  0  0  0  0  0  0  0  0  0
   -0.6923    1.3462    0.8953 C   0  0  0  0  0  0  0  0  0  0  0  0
   -2.2152    1.2387    0.9955 C   0  0  0  0  0  0  0  0  0  0  0  0
   -0.1031    1.5591    2.2911 C   0  0  0  0  0  0  0  0  0  0  0  0
    1.7479    1.2957   -0.6613 N   0  0  0  0  0  0  0  0  0  0  0  0
    3.6035   -1.7563   -1.2934 H   0  0  0  0  0  0  0  0  0  0  0  0
    1.8143    0.3159    1.1891 H   0  0  0  0  0  0  0  0  0  0  0  0
   -0.3919   -0.7867    0.9330 H   0  0  0  0  0  0  0  0  0  0  0  0
   -0.5482   -0.0948   -0.6996 H   0  0  0  0  0  0  0  0  0  0  0  0
   -0.4288    2.1897    0.2571 H   0  0  0  0  0  0  0  0  0  0  0  0
   -2.6169    2.1573    1.4232 H   0  0  0  0  0  0  0  0  0  0  0  0
   -2.4787    0.3952    1.6336 H   0  0  0  0  0  0  0  0  0  0  0  0
   -2.6350    1.0871    0.0011 H   0  0  0  0  0  0  0  0  0  0  0  0
   -0.5048    2.4776    2.7188 H   0  0  0  0  0  0  0  0  0  0  0  0
   -0.3666    0.7156    2.9292 H   0  0  0  0  0  0  0  0  0  0  0  0
    0.9819    1.6356    2.2197 H   0  0  0  0  0  0  0  0  0  0  0  0
    1.3543    1.1535   -1.5937 H   0  0  0  0  0  0  0  0  0  0  0  0
    1.3713    2.1569   -0.2602 H   0  0  0  0  0  0  0  0  0  0  0  0
  1  2  1  0
  2  3  2  0
  2  4  1  0
  4  5  1  0
  4  9  1  0
  5  6  1  0
  6  7  1  0
  6  8  1  0
  1 10  1  0
  4 11  1  0
  5 12  1  0
  5 13  1  0
  6 14  1  0
  7 15  1  0
  7 16  1  0
  7 17  1  0
  8 18  1  0
  8 19  1  0
  8 20  1  0
  9 21  1  0
  9 22  1  0
M  END
