cysteine
     RDKit          3D

 14 13  0  0  1  0  0  0  0  0999 V2000
   -0.2791    1.2140   -0.0234 C   0  0  0  0  0  0  0  0  0  0  0  0
   -1.4736    1.5624   -0.1432 O   0  0  0  0  0  0  0  0  0  0  0  0
    0.0856   -0.2717    0.0021 C   0  0  0  0  0  0  0  0  0  0  0  0
    1.5310   -0.4156    0.1492 C   0  0  0  0  0  0  0  0  0  0  0  0
    1.9600   -2.1634    0.1793 S   0  0  0  0  0  0  0  0  0  0  0  0
   -0.3421   -0.9000   -1.2468 N   0  0  0  0  0  0  0  0  0  0  0  0
    0.6892    2.1486    0.0834 O   0  0  0  0  0  0  0  0  0  0  0  0
   -0.4149   -0.7543    0.8416 H   0  0  0  0  0  0  0  0  0  0  0  0
    1.8498    0.0529    1.0804 H   0  0  0  0  0  0  0  0  0  0  0  0
    2.0315    0.0670   -0.6902 H   0  0  0  0  0  0  0  0  0  0  0  0
    3.3064   -2.2974    0.3164 H   0  0  0  0  0  0  0  0  0  0  0  0
   -1.3539   -0.7993   -1.3499 H   0  0  0  0  0  0  0  0  0  0  0  0
   -0.0985   -1.8924   -1.2298 H   0  0  0  0  0  0  0  0  0  0  0  0
    0.5773    3.0216   -0.3477 H   0  0  0  0  0  0  0  0  0  0  0  0
  1  2  2  0
  1  3  1  0
  1  7  1  0
  3  4  1  0
  3  6  1  0
  4  5  1  0
  3  8  1  0
  4  9  1  0
  4 10  1  0
  5 11  1  0
  6 12  1  0
  6 13  1  0
  7 14  1  0
M  END
