thiamine
     RDKit          3D

 35 36  0  0  0  0  0  0  0  0999 V2000
    0.5343   -0.1061   -0.0826 S   0  0  0  0  0  0  0  0  0  0  0  0
    2.1322    0.6408   -0.1408 C   0  0  0  0  0  0  0  0  0  0  0  0
    1.7453    1.9305    0.2704 C   0  0  0  0  0  0  0  0  0  0  0  0
    0.4274    2.2039    0.5639 N   0  0  0  0  0  0  0  0  0  0  0  0
    0.0310    3.5335    0.8999 C   0  0  0  0  0  0  0  0  0  0  0  0
   -0.3076    4.3496   -0.2885 C   0  0  0  0  0  0  0  0  0  0  0  0
    0.4312    5.5065   -0.6265 C   0  0  0  0  0  0  0  0  0  0  0  0
    0.1410    6.2185   -1.7749 N   0  0  0  0  0  0  0  0  0  0  0  0
   -0.8590    5.8329   -2.6233 C   0  0  0  0  0  0  0  0  0  0  0  0
   -1.6011    4.7223   -2.3229 N   0  0  0  0  0  0  0  0  0  0  0  0
   -1.3494    4.0001   -1.1865 C   0  0  0  0  0  0  0  0  0  0  0  0
   -1.1327    6.5972   -3.8368 C   0  0  0  0  0  0  0  0  0  0  0  0
    1.4236    5.9170    0.1750 N   0  0  0  0  0  0  0  0  0  0  0  0
   -0.5056    1.2126    0.4861 C   0  0  0  0  0  0  0  0  0  0  0  0
    2.7477    2.9856    0.3867 C   0  0  0  0  0  0  0  0  0  0  0  0
    3.4380    0.0955   -0.5005 C   0  0  0  0  0  0  0  0  0  0  0  0
    3.3976   -0.4160   -1.9419 C   0  0  0  0  0  0  0  0  0  0  0  0
    4.6676   -0.9463   -2.2916 O   0  0  0  0  0  0  0  0  0  0  0  0
   -0.8260    3.4981    1.5725 H   0  0  0  0  0  0  0  0  0  0  0  0
    0.8778    4.0448    1.3577 H   0  0  0  0  0  0  0  0  0  0  0  0
   -1.9284    3.1863   -0.9794 H   0  0  0  0  0  0  0  0  0  0  0  0
   -1.3986    7.6200   -3.5697 H   0  0  0  0  0  0  0  0  0  0  0  0
   -1.9592    6.1364   -4.3777 H   0  0  0  0  0  0  0  0  0  0  0  0
   -0.2447    6.6059   -4.4688 H   0  0  0  0  0  0  0  0  0  0  0  0
    1.8275    6.7177   -0.1946 H   0  0  0  0  0  0  0  0  0  0  0  0
    1.0679    6.1115    1.0562 H   0  0  0  0  0  0  0  0  0  0  0  0
   -1.5042    1.2257    0.6934 H   0  0  0  0  0  0  0  0  0  0  0  0
    3.2201    3.1463   -0.5824 H   0  0  0  0  0  0  0  0  0  0  0  0
    2.2682    3.9078    0.7146 H   0  0  0  0  0  0  0  0  0  0  0  0
    3.5033    2.6902    1.1146 H   0  0  0  0  0  0  0  0  0  0  0  0
    3.6854   -0.7273    0.1703 H   0  0  0  0  0  0  0  0  0  0  0  0
    4.1941    0.8757   -0.4128 H   0  0  0  0  0  0  0  0  0  0  0  0
    2.6415   -1.1961   -2.0295 H   0  0  0  0  0  0  0  0  0  0  0  0
    3.1502    0.4069   -2.6126 H   0  0  0  0  0  0  0  0  0  0  0  0
    4.6418   -1.2739   -3.2149 H   0  0  0  0  0  0  0  0  0  0  0  0
  1  2  1  0
  1 14  1  0
  2  3  2  0
  2 16  1  0
  3  4  1  0
  3 15  1  0
  4  5  1  0
  4 14  2  0
  5  6  1  0
  6  7  2  0
  6 11  1  0
  7  8  1  0
  7 13  1  0
  8  9  2  0
  9 10  1  0
  9 12  1  0
 10 11  2  0
 16 17  1  0
 17 18  1  0
  5 19  1  0
  5 20  1  0
 11 21  1  0
 12 22  1  0
 12 23  1  0
 12 24  1  0
 13 25  1  0
 13 26  1  0
 14 27  1  0
 15 28  1  0
 15 29  1  0
 15 30  1  0
 16 31  1  0
 16 32  1  0
 17 33  1  0
 17 34  1  0
 18 35  1  0
M  CHG  1   4   1
M  END
