cetrorelix
     RDKit          3D

194199  0  0  1  0  0  0  0  0999 V2000
    1.2296   14.0690    7.2287 C   0  0  0  0  0  0  0  0  0  0  0  0
    1.6995   13.6139    8.5349 C   0  0  0  0  0  0  0  0  0  0  0  0
    3.0925   13.7011    8.8483 C   0  0  0  0  0  0  0  0  0  0  0  0
    3.9709   14.2326    7.8656 C   0  0  0  0  0  0  0  0  0  0  0  0
    3.4945   14.6671    6.5933 C   0  0  0  0  0  0  0  0  0  0  0  0
    2.1118   14.5888    6.2526 C   0  0  0  0  0  0  0  0  0  0  0  0
    0.8286   13.1001    9.5243 C   0  0  0  0  0  0  0  0  0  0  0  0
   -0.5512   13.0451    9.1986 C   0  0  0  0  0  0  0  0  0  0  0  0
   -1.0010   13.4824    7.9209 C   0  0  0  0  0  0  0  0  0  0  0  0
   -0.1526   14.0025    6.9220 C   0  0  0  0  0  0  0  0  0  0  0  0
   -2.4069   13.3665    7.5692 C   0  0  0  0  0  0  0  0  0  0  0  0
   -2.6763   11.9108    7.0208 C   0  0  0  0  0  0  0  0  0  0  0  0
   -2.2612   10.6543    7.8530 N   0  0  0  0  0  0  0  0  0  0  0  0
   -2.7768   10.4594    9.0744 C   0  0  0  0  0  0  0  0  0  0  0  0
   -2.4448    9.4547    9.7399 O   0  0  0  0  0  0  0  0  0  0  0  0
   -3.7263   11.4205    9.6279 C   0  0  0  0  0  0  0  0  0  0  0  0
   -4.1464   12.1044    6.5248 C   0  0  0  0  0  0  0  0  0  0  0  0
   -4.8198   13.1557    6.4624 O   0  0  0  0  0  0  0  0  0  0  0  0
   -4.5338   10.7456    6.1525 N   0  0  0  0  0  0  0  0  0  0  0  0
   -5.9325   10.5805    5.7880 C   0  0  0  0  0  0  0  0  0  0  0  0
   -5.9474    9.1266    5.3242 C   0  0  0  0  0  0  0  0  0  0  0  0
   -6.1378    8.1476    6.0778 O   0  0  0  0  0  0  0  0  0  0  0  0
   -5.7093    9.0256    3.8781 N   0  0  0  0  0  0  0  0  0  0  0  0
   -5.9427    7.6709    3.3381 C   0  0  0  0  0  0  0  0  0  0  0  0
   -5.0508    7.4798    2.1032 C   0  0  0  0  0  0  0  0  0  0  0  0
   -3.6196    7.5897    2.4069 C   0  0  0  0  0  0  0  0  0  0  0  0
   -2.8668    8.6673    1.8478 C   0  0  0  0  0  0  0  0  0  0  0  0
   -1.4891    8.8531    2.1536 C   0  0  0  0  0  0  0  0  0  0  0  0
   -0.9118    7.9040    3.0442 C   0  0  0  0  0  0  0  0  0  0  0  0
   -1.6549    6.8621    3.5622 N   0  0  0  0  0  0  0  0  0  0  0  0
   -2.9834    6.6554    3.2781 C   0  0  0  0  0  0  0  0  0  0  0  0
   -7.3737    7.5108    2.8132 C   0  0  0  0  0  0  0  0  0  0  0  0
   -7.6664    7.2986    1.6166 O   0  0  0  0  0  0  0  0  0  0  0  0
   -8.3628    7.6395    3.9030 N   0  0  0  0  0  0  0  0  0  0  0  0
   -9.6005    6.8505    3.7096 C   0  0  0  0  0  0  0  0  0  0  0  0
  -10.6945    7.5802    2.9489 C   0  0  0  0  0  0  0  0  0  0  0  0
  -11.8481    7.8155    3.3690 O   0  0  0  0  0  0  0  0  0  0  0  0
  -10.1669    7.9575    1.6474 N   0  0  0  0  0  0  0  0  0  0  0  0
  -11.1190    8.7320    0.8491 C   0  0  0  0  0  0  0  0  0  0  0  0
  -11.5295   10.1279    1.3791 C   0  0  0  0  0  0  0  0  0  0  0  0
  -12.5469   10.8605    0.6040 C   0  0  0  0  0  0  0  0  0  0  0  0
  -12.9097   12.1647    1.0742 C   0  0  0  0  0  0  0  0  0  0  0  0
  -13.7975   12.9678    0.3096 C   0  0  0  0  0  0  0  0  0  0  0  0
  -14.3275   12.4393   -0.9149 C   0  0  0  0  0  0  0  0  0  0  0  0
  -14.0042   11.1256   -1.3898 C   0  0  0  0  0  0  0  0  0  0  0  0
  -13.1256   10.3343   -0.6161 C   0  0  0  0  0  0  0  0  0  0  0  0
  -15.1617   13.2079   -1.6471 O   0  0  0  0  0  0  0  0  0  0  0  0
  -10.2644    8.9757   -0.3895 C   0  0  0  0  0  0  0  0  0  0  0  0
   -9.5856   10.0130   -0.5499 O   0  0  0  0  0  0  0  0  0  0  0  0
  -10.3043    7.8951   -1.3747 N   0  0  0  0  0  0  0  0  0  0  0  0
   -9.7177    8.3144   -2.6681 C   0  0  0  0  0  0  0  0  0  0  0  0
   -9.4071    7.0534   -3.4512 C   0  0  0  0  0  0  0  0  0  0  0  0
   -9.8434    6.8047   -4.5959 O   0  0  0  0  0  0  0  0  0  0  0  0
   -8.5159    6.1541   -2.6769 N   0  0  0  0  0  0  0  0  0  0  0  0
   -8.2669    4.8717   -3.3533 C   0  0  0  0  0  0  0  0  0  0  0  0
   -7.2646    4.0721   -2.5328 C   0  0  0  0  0  0  0  0  0  0  0  0
   -5.9579    4.8593   -2.4156 C   0  0  0  0  0  0  0  0  0  0  0  0
   -4.9505    4.0555   -1.5909 C   0  0  0  0  0  0  0  0  0  0  0  0
   -5.3875    5.1117   -3.8127 C   0  0  0  0  0  0  0  0  0  0  0  0
   -9.5224    3.9827   -3.3345 C   0  0  0  0  0  0  0  0  0  0  0  0
  -10.2684    3.8606   -2.3390 O   0  0  0  0  0  0  0  0  0  0  0  0
   -9.7509    3.2937   -4.6090 N   0  0  0  0  0  0  0  0  0  0  0  0
  -11.0319    2.5499   -4.6444 C   0  0  0  0  0  0  0  0  0  0  0  0
  -10.9680    1.6966   -5.9135 C   0  0  0  0  0  0  0  0  0  0  0  0
  -11.5639    2.0320   -6.9598 O   0  0  0  0  0  0  0  0  0  0  0  0
  -10.1506    0.4312   -5.8396 N   0  0  0  0  0  0  0  0  0  0  0  0
   -9.9670   -0.1094   -7.1950 C   0  0  0  0  0  0  0  0  0  0  0  0
   -9.7915   -1.5570   -7.1220 C   0  0  0  0  0  0  0  0  0  0  0  0
  -10.6918   -2.2718   -6.6312 O   0  0  0  0  0  0  0  0  0  0  0  0
   -8.6651   -2.1193   -7.5810 N   0  0  0  0  0  0  0  0  0  0  0  0
   -8.4956   -3.5173   -7.5105 C   0  0  0  0  0  0  0  0  0  0  0  0
   -8.3045   -4.0796   -8.9205 C   0  0  0  0  0  0  0  0  0  0  0  0
   -9.1985   -3.9269   -9.7807 O   0  0  0  0  0  0  0  0  0  0  0  0
   -7.1789   -4.7359   -9.2333 N   0  0  0  0  0  0  0  0  0  0  0  0
   -7.3204   -3.8247   -6.7006 C   0  0  0  0  0  0  0  0  0  0  0  0
   -8.6731    0.5402   -7.7409 C   0  0  0  0  0  0  0  0  0  0  0  0
   -7.7562    0.7518   -6.5594 C   0  0  0  0  0  0  0  0  0  0  0  0
   -8.7273    0.5658   -5.4035 C   0  0  0  0  0  0  0  0  0  0  0  0
  -12.2743    3.4417   -4.8495 C   0  0  0  0  0  0  0  0  0  0  0  0
  -13.5309    2.5689   -4.8690 C   0  0  0  0  0  0  0  0  0  0  0  0
  -14.7628    3.4532   -5.0724 C   0  0  0  0  0  0  0  0  0  0  0  0
  -15.9208    2.6489   -5.0904 N   0  0  0  0  0  0  0  0  0  0  0  0
  -16.9756    3.4060   -5.2645 C   0  0  0  0  0  0  0  0  0  0  0  0
  -18.1364    2.8808   -5.3123 N   0  0  0  0  0  0  0  0  0  0  0  0
  -16.8377    4.7027   -5.3895 N   0  0  0  0  0  0  0  0  0  0  0  0
  -10.6836    9.0710   -3.5941 C   0  0  0  0  0  0  0  0  0  0  0  0
   -9.9601    9.4460   -4.8891 C   0  0  0  0  0  0  0  0  0  0  0  0
  -10.9214   10.1991   -5.8108 C   0  0  0  0  0  0  0  0  0  0  0  0
  -10.2546   10.5446   -7.0041 N   0  0  0  0  0  0  0  0  0  0  0  0
  -10.9052   11.2141   -7.9654 C   0  0  0  0  0  0  0  0  0  0  0  0
  -10.3141   11.5204   -9.0234 O   0  0  0  0  0  0  0  0  0  0  0  0
  -12.1895   11.5553   -7.7926 N   0  0  0  0  0  0  0  0  0  0  0  0
  -10.2150    6.6112    5.0763 C   0  0  0  0  0  0  0  0  0  0  0  0
   -9.2965    5.8964    5.8897 O   0  0  0  0  0  0  0  0  0  0  0  0
   -6.9466   10.7160    6.9603 C   0  0  0  0  0  0  0  0  0  0  0  0
   -8.3946   10.6574    6.6506 C   0  0  0  0  0  0  0  0  0  0  0  0
   -9.2859   10.6966    7.7729 C   0  0  0  0  0  0  0  0  0  0  0  0
  -10.6959   10.5841    7.5600 C   0  0  0  0  0  0  0  0  0  0  0  0
  -11.1757   10.4370    6.2181 C   0  0  0  0  0  0  0  0  0  0  0  0
  -10.3090   10.4188    5.0815 C   0  0  0  0  0  0  0  0  0  0  0  0
   -8.9090   10.5378    5.3076 C   0  0  0  0  0  0  0  0  0  0  0  0
  -12.8365   10.2782    5.9683 Cl  0  0  0  0  0  0  0  0  0  0  0  0
    3.4460   13.3900    9.7531 H   0  0  0  0  0  0  0  0  0  0  0  0
    4.9665   14.3050    8.0752 H   0  0  0  0  0  0  0  0  0  0  0  0
    4.1562   15.0415    5.9133 H   0  0  0  0  0  0  0  0  0  0  0  0
    1.7724   14.8955    5.3409 H   0  0  0  0  0  0  0  0  0  0  0  0
    1.1764   12.7840   10.4296 H   0  0  0  0  0  0  0  0  0  0  0  0
   -1.2219   12.6916    9.8810 H   0  0  0  0  0  0  0  0  0  0  0  0
   -0.5160   14.3159    6.0220 H   0  0  0  0  0  0  0  0  0  0  0  0
   -3.0184   13.5402    8.4546 H   0  0  0  0  0  0  0  0  0  0  0  0
   -2.6742   14.0464    6.7602 H   0  0  0  0  0  0  0  0  0  0  0  0
   -2.1049   11.8125    6.0841 H   0  0  0  0  0  0  0  0  0  0  0  0
   -1.6303   10.0158    7.4853 H   0  0  0  0  0  0  0  0  0  0  0  0
   -4.6712   10.9188    9.8364 H   0  0  0  0  0  0  0  0  0  0  0  0
   -3.8918   12.2229    8.9089 H   0  0  0  0  0  0  0  0  0  0  0  0
   -3.3246   11.8373   10.5515 H   0  0  0  0  0  0  0  0  0  0  0  0
   -3.9044   10.0076    6.1487 H   0  0  0  0  0  0  0  0  0  0  0  0
   -6.1966   11.2703    4.9776 H   0  0  0  0  0  0  0  0  0  0  0  0
   -5.4265    9.7753    3.3314 H   0  0  0  0  0  0  0  0  0  0  0  0
   -5.7389    6.8655    4.0558 H   0  0  0  0  0  0  0  0  0  0  0  0
   -5.3186    8.2150    1.3443 H   0  0  0  0  0  0  0  0  0  0  0  0
   -5.2589    6.4651    1.7641 H   0  0  0  0  0  0  0  0  0  0  0  0
   -3.3279    9.3198    1.2138 H   0  0  0  0  0  0  0  0  0  0  0  0
   -0.9471    9.6212    1.7579 H   0  0  0  0  0  0  0  0  0  0  0  0
    0.0701    7.9956    3.3046 H   0  0  0  0  0  0  0  0  0  0  0  0
   -3.4941    5.8661    3.6738 H   0  0  0  0  0  0  0  0  0  0  0  0
   -8.2133    8.1965    4.6829 H   0  0  0  0  0  0  0  0  0  0  0  0
   -9.4352    5.8944    3.2108 H   0  0  0  0  0  0  0  0  0  0  0  0
   -9.2777    7.7210    1.3404 H   0  0  0  0  0  0  0  0  0  0  0  0
  -12.0230    8.1357    0.6553 H   0  0  0  0  0  0  0  0  0  0  0  0
  -11.8551   10.0416    2.4158 H   0  0  0  0  0  0  0  0  0  0  0  0
  -10.6489   10.7613    1.4862 H   0  0  0  0  0  0  0  0  0  0  0  0
  -12.5319   12.5149    1.9545 H   0  0  0  0  0  0  0  0  0  0  0  0
  -14.0536   13.9033    0.6252 H   0  0  0  0  0  0  0  0  0  0  0  0
  -14.3975   10.7720   -2.2620 H   0  0  0  0  0  0  0  0  0  0  0  0
  -12.8973    9.3872   -0.9181 H   0  0  0  0  0  0  0  0  0  0  0  0
  -15.4394   12.7169   -2.4485 H   0  0  0  0  0  0  0  0  0  0  0  0
  -10.6698    7.0133   -1.2022 H   0  0  0  0  0  0  0  0  0  0  0  0
   -8.7662    8.8515   -2.5675 H   0  0  0  0  0  0  0  0  0  0  0  0
   -8.1372    6.3875   -1.8149 H   0  0  0  0  0  0  0  0  0  0  0  0
   -7.8714    5.0311   -4.3657 H   0  0  0  0  0  0  0  0  0  0  0  0
   -7.6710    3.8922   -1.5376 H   0  0  0  0  0  0  0  0  0  0  0  0
   -7.0714    3.1184   -3.0242 H   0  0  0  0  0  0  0  0  0  0  0  0
   -6.1511    5.8129   -1.9243 H   0  0  0  0  0  0  0  0  0  0  0  0
   -4.0196    4.6164   -1.5074 H   0  0  0  0  0  0  0  0  0  0  0  0
   -5.3569    3.8757   -0.5956 H   0  0  0  0  0  0  0  0  0  0  0  0
   -4.7574    3.1019   -2.0822 H   0  0  0  0  0  0  0  0  0  0  0  0
   -4.4566    5.6725   -3.7291 H   0  0  0  0  0  0  0  0  0  0  0  0
   -6.1051    5.6843   -4.4002 H   0  0  0  0  0  0  0  0  0  0  0  0
   -5.1943    4.1581   -4.3040 H   0  0  0  0  0  0  0  0  0  0  0  0
   -9.1278    3.3220   -5.3519 H   0  0  0  0  0  0  0  0  0  0  0  0
  -11.1539    1.8858   -3.7756 H   0  0  0  0  0  0  0  0  0  0  0  0
  -10.8113    0.1115   -7.8481 H   0  0  0  0  0  0  0  0  0  0  0  0
   -7.9664   -1.5646   -7.9619 H   0  0  0  0  0  0  0  0  0  0  0  0
   -9.3780   -3.9678   -7.0561 H   0  0  0  0  0  0  0  0  0  0  0  0
   -7.0578   -5.0924  -10.1272 H   0  0  0  0  0  0  0  0  0  0  0  0
   -6.4852   -4.8544   -8.5658 H   0  0  0  0  0  0  0  0  0  0  0  0
   -7.1893   -4.9055   -6.6461 H   0  0  0  0  0  0  0  0  0  0  0  0
   -7.4565   -3.4241   -5.6961 H   0  0  0  0  0  0  0  0  0  0  0  0
   -6.4380   -3.3742   -7.1550 H   0  0  0  0  0  0  0  0  0  0  0  0
   -8.9124    1.5031   -8.1921 H   0  0  0  0  0  0  0  0  0  0  0  0
   -8.2070   -0.0644   -8.5190 H   0  0  0  0  0  0  0  0  0  0  0  0
   -7.3889    1.7780   -6.5637 H   0  0  0  0  0  0  0  0  0  0  0  0
   -6.9490    0.0230   -6.4861 H   0  0  0  0  0  0  0  0  0  0  0  0
   -8.6364    1.4051   -4.7139 H   0  0  0  0  0  0  0  0  0  0  0  0
   -8.4723   -0.3633   -4.8937 H   0  0  0  0  0  0  0  0  0  0  0  0
  -12.3441    4.1608   -4.0334 H   0  0  0  0  0  0  0  0  0  0  0  0
  -12.1870    3.9742   -5.7965 H   0  0  0  0  0  0  0  0  0  0  0  0
  -13.6181    2.0364   -3.9220 H   0  0  0  0  0  0  0  0  0  0  0  0
  -13.4611    1.8498   -5.6851 H   0  0  0  0  0  0  0  0  0  0  0  0
  -14.8326    4.1723   -4.2563 H   0  0  0  0  0  0  0  0  0  0  0  0
  -14.6755    3.9857   -6.0194 H   0  0  0  0  0  0  0  0  0  0  0  0
  -15.8587    2.0089   -5.8166 H   0  0  0  0  0  0  0  0  0  0  0  0
  -18.2348    1.9552   -5.2231 H   0  0  0  0  0  0  0  0  0  0  0  0
  -17.7096    5.1104   -5.5103 H   0  0  0  0  0  0  0  0  0  0  0  0
  -16.4207    5.0620   -4.5908 H   0  0  0  0  0  0  0  0  0  0  0  0
  -11.5377    8.4348   -3.8263 H   0  0  0  0  0  0  0  0  0  0  0  0
  -11.0299    9.9767   -3.0961 H   0  0  0  0  0  0  0  0  0  0  0  0
   -9.6138    8.5403   -5.3871 H   0  0  0  0  0  0  0  0  0  0  0  0
   -9.1060   10.0822   -4.6569 H   0  0  0  0  0  0  0  0  0  0  0  0
  -11.7755    9.5629   -6.0429 H   0  0  0  0  0  0  0  0  0  0  0  0
  -11.2677   11.1047   -5.3127 H   0  0  0  0  0  0  0  0  0  0  0  0
   -9.3250   10.2976   -7.1292 H   0  0  0  0  0  0  0  0  0  0  0  0
  -12.6604   12.0399   -8.4885 H   0  0  0  0  0  0  0  0  0  0  0  0
  -12.6482   11.3176   -6.9716 H   0  0  0  0  0  0  0  0  0  0  0  0
  -11.1310    6.0307    4.9662 H   0  0  0  0  0  0  0  0  0  0  0  0
  -10.4456    7.5686    5.5436 H   0  0  0  0  0  0  0  0  0  0  0  0
   -9.6933    5.7419    6.7724 H   0  0  0  0  0  0  0  0  0  0  0  0
   -6.7319   11.6243    7.5232 H   0  0  0  0  0  0  0  0  0  0  0  0
   -6.7318    9.9580    7.7136 H   0  0  0  0  0  0  0  0  0  0  0  0
   -8.9167   10.8042    8.7176 H   0  0  0  0  0  0  0  0  0  0  0  0
  -11.3453   10.6080    8.3461 H   0  0  0  0  0  0  0  0  0  0  0  0
  -10.6826   10.3233    4.1372 H   0  0  0  0  0  0  0  0  0  0  0  0
   -8.2656   10.5387    4.5161 H   0  0  0  0  0  0  0  0  0  0  0  0
  1  2  1  0
  1  6  2  0
  1 10  1  0
  2  3  2  0
  2  7  1  0
  3  4  1  0
  4  5  2  0
  5  6  1  0
  7  8  2  0
  8  9  1  0
  9 10  2  0
  9 11  1  0
 11 12  1  0
 12 13  1  0
 12 17  1  0
 13 14  1  0
 14 15  2  0
 14 16  1  0
 17 18  2  0
 17 19  1  0
 19 20  1  0
 20 21  1  0
 20 95  1  0
 21 22  2  0
 21 23  1  0
 23 24  1  0
 24 25  1  0
 24 32  1  0
 25 26  1  0
 26 27  2  0
 26 31  1  0
 27 28  1  0
 28 29  2  0
 29 30  1  0
 30 31  2  0
 32 33  2  0
 32 34  1  0
 34 35  1  0
 35 36  1  0
 35 93  1  0
 36 37  2  0
 36 38  1  0
 38 39  1  0
 39 40  1  0
 39 48  1  0
 40 41  1  0
 41 42  2  0
 41 46  1  0
 42 43  1  0
 43 44  2  0
 44 45  1  0
 44 47  1  0
 45 46  2  0
 48 49  2  0
 48 50  1  0
 50 51  1  0
 51 52  1  0
 51 86  1  0
 52 53  2  0
 52 54  1  0
 54 55  1  0
 55 56  1  0
 55 60  1  0
 56 57  1  0
 57 58  1  0
 57 59  1  0
 60 61  2  0
 60 62  1  0
 62 63  1  0
 63 64  1  0
 63 79  1  0
 64 65  2  0
 64 66  1  0
 66 67  1  0
 66 78  1  0
 67 68  1  0
 67 76  1  0
 68 69  2  0
 68 70  1  0
 70 71  1  0
 71 72  1  0
 71 75  1  0
 72 73  2  0
 72 74  1  0
 76 77  1  0
 77 78  1  0
 79 80  1  0
 80 81  1  0
 81 82  1  0
 82 83  1  0
 83 84  2  0
 83 85  1  0
 86 87  1  0
 87 88  1  0
 88 89  1  0
 89 90  1  0
 90 91  2  0
 90 92  1  0
 93 94  1  0
 95 96  1  0
 96 97  2  0
 96101  1  0
 97 98  1  0
 98 99  2  0
 99100  1  0
 99102  1  0
100101  2  0
  3103  1  0
  4104  1  0
  5105  1  0
  6106  1  0
  7107  1  0
  8108  1  0
 10109  1  0
 11110  1  0
 11111  1  0
 12112  1  0
 13113  1  0
 16114  1  0
 16115  1  0
 16116  1  0
 19117  1  0
 20118  1  0
 23119  1  0
 24120  1  0
 25121  1  0
 25122  1  0
 27123  1  0
 28124  1  0
 29125  1  0
 31126  1  0
 34127  1  0
 35128  1  0
 38129  1  0
 39130  1  0
 40131  1  0
 40132  1  0
 42133  1  0
 43134  1  0
 45135  1  0
 46136  1  0
 47137  1  0
 50138  1  0
 51139  1  0
 54140  1  0
 55141  1  0
 56142  1  0
 56143  1  0
 57144  1  0
 58145  1  0
 58146  1  0
 58147  1  0
 59148  1  0
 59149  1  0
 59150  1  0
 62151  1  0
 63152  1  0
 67153  1  0
 70154  1  0
 71155  1  0
 74156  1  0
 74157  1  0
 75158  1  0
 75159  1  0
 75160  1  0
 76161  1  0
 76162  1  0
 77163  1  0
 77164  1  0
 78165  1  0
 78166  1  0
 79167  1  0
 79168  1  0
 80169  1  0
 80170  1  0
 81171  1  0
 81172  1  0
 82173  1  0
 84174  1  0
 85175  1  0
 85176  1  0
 86177  1  0
 86178  1  0
 87179  1  0
 87180  1  0
 88181  1  0
 88182  1  0
 89183  1  0
 92184  1  0
 92185  1  0
 93186  1  0
 93187  1  0
 94188  1  0
 95189  1  0
 95190  1  0
 97191  1  0
 98192  1  0
100193  1  0
101194  1  0
M  END
