nadh
     RDKit          3D

 73 77  0  0  1  0  0  0  0  0999 V2000
    2.4136    0.3794   -9.8847 P   0  0  0  0  0  0  0  0  0  0  0  0
    2.5394    1.7212   -9.3096 O   0  0  0  0  0  0  0  0  0  0  0  0
    1.4740    0.4521  -11.1675 O   0  0  0  0  0  0  0  0  0  0  0  0
    1.3019   -0.8927  -11.6754 C   0  0  0  0  0  0  0  0  0  0  0  0
    0.6328   -0.7918  -13.0183 C   0  0  0  0  0  0  0  0  0  0  0  0
    1.5285   -0.1340  -14.0148 O   0  0  0  0  0  0  0  0  0  0  0  0
    1.2068   -0.4443  -15.4458 C   0  0  0  0  0  0  0  0  0  0  0  0
    2.1958    0.0393  -16.3280 N   0  0  0  0  0  0  0  0  0  0  0  0
    3.4797   -0.3042  -16.3775 C   0  0  0  0  0  0  0  0  0  0  0  0
    4.2252   -1.1918  -15.6398 N   0  0  0  0  0  0  0  0  0  0  0  0
    5.5359   -1.3805  -15.9401 C   0  0  0  0  0  0  0  0  0  0  0  0
    6.1081   -0.7153  -16.9642 N   0  0  0  0  0  0  0  0  0  0  0  0
    5.3765    0.1120  -17.7730 C   0  0  0  0  0  0  0  0  0  0  0  0
    5.9853    0.5581  -18.8758 N   0  0  0  0  0  0  0  0  0  0  0  0
    4.0396    0.3959  -17.4348 C   0  0  0  0  0  0  0  0  0  0  0  0
    3.1005    1.1832  -18.0152 N   0  0  0  0  0  0  0  0  0  0  0  0
    1.9842    0.9499  -17.2957 C   0  0  0  0  0  0  0  0  0  0  0  0
    1.0056   -1.9833  -15.3324 C   0  0  0  0  0  0  0  0  0  0  0  0
    0.0563   -2.4398  -16.2825 O   0  0  0  0  0  0  0  0  0  0  0  0
    0.5170   -2.1406  -13.8192 C   0  0  0  0  0  0  0  0  0  0  0  0
   -0.8333   -2.5792  -13.7514 O   0  0  0  0  0  0  0  0  0  0  0  0
    1.6956   -0.6961   -8.9256 O   0  0  0  0  0  0  0  0  0  0  0  0
    2.1162   -0.8234   -7.3936 P   0  0  0  0  0  0  0  0  0  0  0  0
    0.9751   -1.3791   -6.6501 O   0  0  0  0  0  0  0  0  0  0  0  0
    3.3181   -1.8425   -7.1512 O   0  0  0  0  0  0  0  0  0  0  0  0
    4.3203   -1.9090   -8.1663 C   0  0  0  0  0  0  0  0  0  0  0  0
    5.3663   -2.9363   -7.7538 C   0  0  0  0  0  0  0  0  0  0  0  0
    6.3433   -3.1158   -8.7626 O   0  0  0  0  0  0  0  0  0  0  0  0
    7.3243   -3.9872   -8.1621 C   0  0  0  0  0  0  0  0  0  0  0  0
    8.5131   -4.0345   -8.9688 N   0  0  0  0  0  0  0  0  0  0  0  0
    8.3841   -3.7714  -10.2844 C   0  0  0  0  0  0  0  0  0  0  0  0
    9.3259   -3.0264  -10.8950 C   0  0  0  0  0  0  0  0  0  0  0  0
   10.4583   -2.5314  -10.0810 C   0  0  0  0  0  0  0  0  0  0  0  0
   10.7425   -3.4167   -8.9473 C   0  0  0  0  0  0  0  0  0  0  0  0
    9.7516   -4.1836   -8.4448 C   0  0  0  0  0  0  0  0  0  0  0  0
    9.1934   -2.7170  -12.2274 C   0  0  0  0  0  0  0  0  0  0  0  0
    8.6083   -3.4885  -13.0241 O   0  0  0  0  0  0  0  0  0  0  0  0
    9.7092   -1.5769  -12.6957 N   0  0  0  0  0  0  0  0  0  0  0  0
    7.4743   -3.4038   -6.7312 C   0  0  0  0  0  0  0  0  0  0  0  0
    7.6023   -4.4933   -5.8209 O   0  0  0  0  0  0  0  0  0  0  0  0
    6.1956   -2.5633   -6.5215 C   0  0  0  0  0  0  0  0  0  0  0  0
    5.4688   -2.8771   -5.3396 O   0  0  0  0  0  0  0  0  0  0  0  0
    2.5014    0.5920   -6.8055 O   0  0  0  0  0  0  0  0  0  0  0  0
    3.8180   -0.0689  -10.4945 O   0  0  0  0  0  0  0  0  0  0  0  0
    0.5898   -1.4723  -11.0489 H   0  0  0  0  0  0  0  0  0  0  0  0
    2.2416   -1.4608  -11.8353 H   0  0  0  0  0  0  0  0  0  0  0  0
   -0.2888   -0.2256  -13.0004 H   0  0  0  0  0  0  0  0  0  0  0  0
    0.2579    0.0605  -15.6124 H   0  0  0  0  0  0  0  0  0  0  0  0
    6.0964   -2.0412  -15.4277 H   0  0  0  0  0  0  0  0  0  0  0  0
    6.9565    0.6656  -18.8622 H   0  0  0  0  0  0  0  0  0  0  0  0
    5.4506    0.7780  -19.6518 H   0  0  0  0  0  0  0  0  0  0  0  0
    1.0738    1.4156  -17.4648 H   0  0  0  0  0  0  0  0  0  0  0  0
    1.9608   -2.5050  -15.4552 H   0  0  0  0  0  0  0  0  0  0  0  0
    0.4410   -2.1801  -17.1455 H   0  0  0  0  0  0  0  0  0  0  0  0
    1.1144   -2.9254  -13.3601 H   0  0  0  0  0  0  0  0  0  0  0  0
   -1.0476   -2.6953  -12.7987 H   0  0  0  0  0  0  0  0  0  0  0  0
    3.8697   -2.3503   -9.0558 H   0  0  0  0  0  0  0  0  0  0  0  0
    4.7991   -0.9285   -8.3302 H   0  0  0  0  0  0  0  0  0  0  0  0
    4.8291   -3.8809   -7.6239 H   0  0  0  0  0  0  0  0  0  0  0  0
    6.8993   -5.0007   -8.1306 H   0  0  0  0  0  0  0  0  0  0  0  0
    7.5623   -4.0851  -10.7693 H   0  0  0  0  0  0  0  0  0  0  0  0
   10.2142   -1.5269   -9.6985 H   0  0  0  0  0  0  0  0  0  0  0  0
   11.3562   -2.4514  -10.7005 H   0  0  0  0  0  0  0  0  0  0  0  0
   11.6470   -3.4436   -8.5422 H   0  0  0  0  0  0  0  0  0  0  0  0
    9.9222   -4.8140   -7.6898 H   0  0  0  0  0  0  0  0  0  0  0  0
    9.6317   -1.3659  -13.6350 H   0  0  0  0  0  0  0  0  0  0  0  0
   10.1605   -0.9684  -12.0880 H   0  0  0  0  0  0  0  0  0  0  0  0
    8.3517   -2.7471   -6.6495 H   0  0  0  0  0  0  0  0  0  0  0  0
    7.6892   -4.0871   -4.9374 H   0  0  0  0  0  0  0  0  0  0  0  0
    6.4428   -1.4904   -6.5456 H   0  0  0  0  0  0  0  0  0  0  0  0
    6.0976   -2.7055   -4.6138 H   0  0  0  0  0  0  0  0  0  0  0  0
    2.7694    0.4205   -5.8831 H   0  0  0  0  0  0  0  0  0  0  0  0
    4.0023   -0.9272  -10.1318 H   0  0  0  0  0  0  0  0  0  0  0  0
  1  2  2  0
  1  3  1  0
  1 22  1  0
  1 44  1  0
  3  4  1  0
  4  5  1  0
  5  6  1  0
  5 20  1  0
  6  7  1  0
  7  8  1  0
  7 18  1  0
  8  9  1  0
  8 17  1  0
  9 10  2  0
  9 15  1  0
 10 11  1  0
 11 12  2  0
 12 13  1  0
 13 14  1  0
 13 15  2  0
 15 16  1  0
 16 17  2  0
 18 19  1  0
 18 20  1  0
 20 21  1  0
 22 23  1  0
 23 24  2  0
 23 25  1  0
 23 43  1  0
 25 26  1  0
 26 27  1  0
 27 28  1  0
 27 41  1  0
 28 29  1  0
 29 30  1  0
 29 39  1  0
 30 31  1  0
 30 35  1  0
 31 32  2  0
 32 33  1  0
 32 36  1  0
 33 34  1  0
 34 35  2  0
 36 37  2  0
 36 38  1  0
 39 40  1  0
 39 41  1  0
 41 42  1  0
  4 45  1  0
  4 46  1  0
  5 47  1  0
  7 48  1  0
 11 49  1  0
 14 50  1  0
 14 51  1  0
 17 52  1  0
 18 53  1  0
 19 54  1  0
 20 55  1  0
 21 56  1  0
 26 57  1  0
 26 58  1  0
 27 59  1  0
 29 60  1  0
 31 61  1  0
 33 62  1  0
 33 63  1  0
 34 64  1  0
 35 65  1  0
 38 66  1  0
 38 67  1  0
 39 68  1  0
 40 69  1  0
 41 70  1  0
 42 71  1  0
 43 72  1  0
 44 73  1  0
M  END
