icosapent
     RDKit          3D

 52 51  0  0  0  0  0  0  0  0999 V2000
   -3.1149    8.5644   10.3961 C   0  0  0  0  0  0  0  0  0  0  0  0
   -2.1499    9.4361   10.1172 C   0  0  0  0  0  0  0  0  0  0  0  0
   -1.3088    9.9305   11.1627 C   0  0  0  0  0  0  0  0  0  0  0  0
   -0.3567   10.8465   10.6157 C   0  0  0  0  0  0  0  0  0  0  0  0
    0.9452   10.6001   10.7308 C   0  0  0  0  0  0  0  0  0  0  0  0
    1.3928    9.4192   11.4016 C   0  0  0  0  0  0  0  0  0  0  0  0
    2.8223    9.3799   11.3947 C   0  0  0  0  0  0  0  0  0  0  0  0
    3.4569    8.3651   10.8148 C   0  0  0  0  0  0  0  0  0  0  0  0
    2.7098    7.3133   10.1981 C   0  0  0  0  0  0  0  0  0  0  0  0
    3.6103    6.3474    9.6494 C   0  0  0  0  0  0  0  0  0  0  0  0
    3.1344    5.2746    9.0236 C   0  0  0  0  0  0  0  0  0  0  0  0
    1.7222    5.0871    8.8995 C   0  0  0  0  0  0  0  0  0  0  0  0
    1.3685    5.0324    7.5150 C   0  0  0  0  0  0  0  0  0  0  0  0
    0.0982    4.8624    7.1594 C   0  0  0  0  0  0  0  0  0  0  0  0
   -0.9138    4.7342    8.1615 C   0  0  0  0  0  0  0  0  0  0  0  0
   -1.9393    5.8578    7.9973 C   0  0  0  0  0  0  0  0  0  0  0  0
   -3.0221    5.7207    9.0695 C   0  0  0  0  0  0  0  0  0  0  0  0
   -3.6880    4.4293    8.9264 C   0  0  0  0  0  0  0  0  0  0  0  0
   -4.6111    4.1122    9.7073 O   0  0  0  0  0  0  0  0  0  0  0  0
   -3.3068    3.5778    7.9507 O   0  0  0  0  0  0  0  0  0  0  0  0
   -3.3115    8.1216   11.7415 C   0  0  0  0  0  0  0  0  0  0  0  0
   -4.7245    8.4900   12.1984 C   0  0  0  0  0  0  0  0  0  0  0  0
   -3.6971    8.2221    9.6723 H   0  0  0  0  0  0  0  0  0  0  0  0
   -2.0138    9.7426    9.1857 H   0  0  0  0  0  0  0  0  0  0  0  0
   -1.9182   10.4417   11.9080 H   0  0  0  0  0  0  0  0  0  0  0  0
   -0.7843    9.0979   11.6314 H   0  0  0  0  0  0  0  0  0  0  0  0
   -0.6666   11.6640   10.1513 H   0  0  0  0  0  0  0  0  0  0  0  0
    1.6044   11.2342   10.3520 H   0  0  0  0  0  0  0  0  0  0  0  0
    1.0028    8.5400   10.8887 H   0  0  0  0  0  0  0  0  0  0  0  0
    1.0345    9.4281   12.4310 H   0  0  0  0  0  0  0  0  0  0  0  0
    3.3395   10.1082   11.8217 H   0  0  0  0  0  0  0  0  0  0  0  0
    4.4465    8.3380   10.8101 H   0  0  0  0  0  0  0  0  0  0  0  0
    2.0734    6.8349   10.9425 H   0  0  0  0  0  0  0  0  0  0  0  0
    2.0905    7.7261    9.4018 H   0  0  0  0  0  0  0  0  0  0  0  0
    4.5880    6.4772    9.7353 H   0  0  0  0  0  0  0  0  0  0  0  0
    3.7578    4.6059    8.6437 H   0  0  0  0  0  0  0  0  0  0  0  0
    1.2021    5.9188    9.3748 H   0  0  0  0  0  0  0  0  0  0  0  0
    1.4355    4.1542    9.3849 H   0  0  0  0  0  0  0  0  0  0  0  0
    2.0691    5.1211    6.8212 H   0  0  0  0  0  0  0  0  0  0  0  0
   -0.1467    4.8245    6.2009 H   0  0  0  0  0  0  0  0  0  0  0  0
   -1.4110    3.7701    8.0546 H   0  0  0  0  0  0  0  0  0  0  0  0
   -0.4575    4.8003    9.1492 H   0  0  0  0  0  0  0  0  0  0  0  0
   -2.3956    5.7918    7.0096 H   0  0  0  0  0  0  0  0  0  0  0  0
   -1.4421    6.8219    8.1042 H   0  0  0  0  0  0  0  0  0  0  0  0
   -3.7526    6.5212    8.9525 H   0  0  0  0  0  0  0  0  0  0  0  0
   -2.5658    5.7867   10.0572 H   0  0  0  0  0  0  0  0  0  0  0  0
   -3.7537    2.7109    7.8546 H   0  0  0  0  0  0  0  0  0  0  0  0
   -3.1842    7.0402   11.7904 H   0  0  0  0  0  0  0  0  0  0  0  0
   -2.5820    8.6031   12.3928 H   0  0  0  0  0  0  0  0  0  0  0  0
   -4.8743    8.1524   13.2239 H   0  0  0  0  0  0  0  0  0  0  0  0
   -5.4540    8.0085   11.5471 H   0  0  0  0  0  0  0  0  0  0  0  0
   -4.8517    9.5714   12.1495 H   0  0  0  0  0  0  0  0  0  0  0  0
  1  2  2  0
  1 21  1  0
  2  3  1  0
  3  4  1  0
  4  5  2  0
  5  6  1  0
  6  7  1  0
  7  8  2  0
  8  9  1  0
  9 10  1  0
 10 11  2  0
 11 12  1  0
 12 13  1  0
 13 14  2  0
 14 15  1  0
 15 16  1  0
 16 17  1  0
 17 18  1  0
 18 19  2  0
 18 20  1  0
 21 22  1  0
  1 23  1  0
  2 24  1  0
  3 25  1  0
  3 26  1  0
  4 27  1  0
  5 28  1  0
  6 29  1  0
  6 30  1  0
  7 31  1  0
  8 32  1  0
  9 33  1  0
  9 34  1  0
 10 35  1  0
 11 36  1  0
 12 37  1  0
 12 38  1  0
 13 39  1  0
 14 40  1  0
 15 41  1  0
 15 42  1  0
 16 43  1  0
 16 44  1  0
 17 45  1  0
 17 46  1  0
 20 47  1  0
 21 48  1  0
 21 49  1  0
 22 50  1  0
 22 51  1  0
 22 52  1  0
M  END
