alanine
     RDKit          3D

 13 12  0  0  1  0  0  0  0  0999 V2000
    1.1825   -0.6595   -0.4955 C   0  0  0  0  0  0  0  0  0  0  0  0
    2.2074   -0.4794    0.1971 O   0  0  0  0  0  0  0  0  0  0  0  0
   -0.1647   -0.1064   -0.0263 C   0  0  0  0  0  0  0  0  0  0  0  0
   -0.0765    1.3472    0.1027 N   0  0  0  0  0  0  0  0  0  0  0  0
   -1.1967   -0.4468   -1.0014 C   0  0  0  0  0  0  0  0  0  0  0  0
    1.2643   -1.3420   -1.6574 O   0  0  0  0  0  0  0  0  0  0  0  0
   -0.4198   -0.5421    0.9397 H   0  0  0  0  0  0  0  0  0  0  0  0
   -0.9764    1.7166    0.4160 H   0  0  0  0  0  0  0  0  0  0  0  0
    0.1626    1.7557   -0.8031 H   0  0  0  0  0  0  0  0  0  0  0  0
   -2.1565   -0.0528   -0.6672 H   0  0  0  0  0  0  0  0  0  0  0  0
   -1.2625   -1.5305   -1.0975 H   0  0  0  0  0  0  0  0  0  0  0  0
   -0.9416   -0.0111   -1.9674 H   0  0  0  0  0  0  0  0  0  0  0  0
    2.0920   -1.3197   -2.1815 H   0  0  0  0  0  0  0  0  0  0  0  0
  1  2  2  0
  1  3  1  0
  1  6  1  0
  3  4  1  0
  3  5  1  0
  3  7  1  0
  4  8  1  0
  4  9  1  0
  5 10  1  0
  5 11  1  0
  5 12  1  0
  6 13  1  0
M  END
