valine
     RDKit          3D

 19 18  0  0  1  0  0  0  0  0999 V2000
    2.0828   -0.2331   -0.4635 O   0  0  0  0  0  0  0  0  0  0  0  0
    0.8584   -0.2833   -0.7101 C   0  0  0  0  0  0  0  0  0  0  0  0
    0.4317   -0.6354   -1.9416 O   0  0  0  0  0  0  0  0  0  0  0  0
   -0.1568    0.0544    0.3837 C   0  0  0  0  0  0  0  0  0  0  0  0
    0.0558    1.4273    0.8389 N   0  0  0  0  0  0  0  0  0  0  0  0
   -1.5093   -0.0775   -0.1502 C   0  0  0  0  0  0  0  0  0  0  0  0
   -2.5244    0.2602    0.9436 C   0  0  0  0  0  0  0  0  0  0  0  0
   -1.7318   -1.5143   -0.6265 C   0  0  0  0  0  0  0  0  0  0  0  0
    0.9814   -0.4325   -2.7272 H   0  0  0  0  0  0  0  0  0  0  0  0
   -0.0288   -0.6303    1.2221 H   0  0  0  0  0  0  0  0  0  0  0  0
   -0.0642    2.0693    0.0528 H   0  0  0  0  0  0  0  0  0  0  0  0
   -0.6223    1.6528    1.5695 H   0  0  0  0  0  0  0  0  0  0  0  0
   -1.6373    0.6072   -0.9886 H   0  0  0  0  0  0  0  0  0  0  0  0
   -3.5342    0.1618    0.5451 H   0  0  0  0  0  0  0  0  0  0  0  0
   -2.3964   -0.4245    1.7820 H   0  0  0  0  0  0  0  0  0  0  0  0
   -2.3659    1.2838    1.2830 H   0  0  0  0  0  0  0  0  0  0  0  0
   -2.7415   -1.6127   -1.0251 H   0  0  0  0  0  0  0  0  0  0  0  0
   -1.6037   -2.1990    0.2118 H   0  0  0  0  0  0  0  0  0  0  0  0
   -1.0086   -1.7548   -1.4058 H   0  0  0  0  0  0  0  0  0  0  0  0
  1  2  2  0
  2  3  1  0
  2  4  1  0
  4  5  1  0
  4  6  1  0
  6  7  1  0
  6  8  1  0
  3  9  1  0
  4 10  1  0
  5 11  1  0
  5 12  1  0
  6 13  1  0
  7 14  1  0
  7 15  1  0
  7 16  1  0
  8 17  1  0
  8 18  1  0
  8 19  1  0
M  END
