vitamin_a
     RDKit          3D

 51 51  0  0  0  0  0  0  0  0999 V2000
    1.1403   -0.9498    1.9068 C   0  0  0  0  0  0  0  0  0  0  0  0
    0.1416   -1.1638    2.8298 C   0  0  0  0  0  0  0  0  0  0  0  0
   -1.0987   -0.4033    2.8086 C   0  0  0  0  0  0  0  0  0  0  0  0
   -0.9827    0.9688    2.1358 C   0  0  0  0  0  0  0  0  0  0  0  0
   -0.3379    0.8108    0.7451 C   0  0  0  0  0  0  0  0  0  0  0  0
    1.1056    0.1730    0.8545 C   0  0  0  0  0  0  0  0  0  0  0  0
    1.4397   -0.4076   -0.5944 C   0  0  0  0  0  0  0  0  0  0  0  0
    1.9757    1.4447    1.2509 C   0  0  0  0  0  0  0  0  0  0  0  0
    0.1145   -2.2303    3.8505 C   0  0  0  0  0  0  0  0  0  0  0  0
    2.2216   -1.8183    1.9156 C   0  0  0  0  0  0  0  0  0  0  0  0
    3.4737   -1.4877    1.5841 C   0  0  0  0  0  0  0  0  0  0  0  0
    4.5934   -2.2492    1.6615 C   0  0  0  0  0  0  0  0  0  0  0  0
    5.7650   -1.6768    1.2922 C   0  0  0  0  0  0  0  0  0  0  0  0
    6.9721   -2.2694    1.2786 C   0  0  0  0  0  0  0  0  0  0  0  0
    8.1802   -1.8154    0.9128 C   0  0  0  0  0  0  0  0  0  0  0  0
    9.3409   -2.5904    0.9333 C   0  0  0  0  0  0  0  0  0  0  0  0
   10.4934   -2.0098    0.5223 C   0  0  0  0  0  0  0  0  0  0  0  0
   11.8418   -2.5620    0.4229 C   0  0  0  0  0  0  0  0  0  0  0  0
   12.5258   -2.1514    1.6010 O   0  0  0  0  0  0  0  0  0  0  0  0
    9.3807   -3.9979    1.3940 C   0  0  0  0  0  0  0  0  0  0  0  0
    4.5255   -3.6293    2.1731 C   0  0  0  0  0  0  0  0  0  0  0  0
   -1.8482   -1.0092    2.2786 H   0  0  0  0  0  0  0  0  0  0  0  0
   -1.4809   -0.1687    3.8091 H   0  0  0  0  0  0  0  0  0  0  0  0
   -1.9718    1.4072    2.0506 H   0  0  0  0  0  0  0  0  0  0  0  0
   -0.3741    1.6098    2.7809 H   0  0  0  0  0  0  0  0  0  0  0  0
   -0.9870    0.1730    0.1404 H   0  0  0  0  0  0  0  0  0  0  0  0
   -0.3714    1.7910    0.2541 H   0  0  0  0  0  0  0  0  0  0  0  0
    2.3875   -0.9371   -0.6900 H   0  0  0  0  0  0  0  0  0  0  0  0
    0.6848   -1.1433   -0.8698 H   0  0  0  0  0  0  0  0  0  0  0  0
    1.4464    0.3569   -1.3705 H   0  0  0  0  0  0  0  0  0  0  0  0
    3.0593    1.4595    1.2070 H   0  0  0  0  0  0  0  0  0  0  0  0
    1.6460    1.8233    2.2184 H   0  0  0  0  0  0  0  0  0  0  0  0
    1.6985    2.1936    0.5089 H   0  0  0  0  0  0  0  0  0  0  0  0
   -0.3714   -3.1150    3.4389 H   0  0  0  0  0  0  0  0  0  0  0  0
   -0.4397   -1.8843    4.7230 H   0  0  0  0  0  0  0  0  0  0  0  0
    1.1346   -2.4791    4.1432 H   0  0  0  0  0  0  0  0  0  0  0  0
    2.0789   -2.7695    2.1955 H   0  0  0  0  0  0  0  0  0  0  0  0
    3.6023   -0.5851    1.2366 H   0  0  0  0  0  0  0  0  0  0  0  0
    5.7275   -0.7345    1.0146 H   0  0  0  0  0  0  0  0  0  0  0  0
    6.9604   -3.1899    1.5670 H   0  0  0  0  0  0  0  0  0  0  0  0
    8.2453   -0.8624    0.5875 H   0  0  0  0  0  0  0  0  0  0  0  0
   10.4557   -1.0567    0.2469 H   0  0  0  0  0  0  0  0  0  0  0  0
   11.7875   -3.6502    0.3948 H   0  0  0  0  0  0  0  0  0  0  0  0
   12.3774   -2.1249   -0.4198 H   0  0  0  0  0  0  0  0  0  0  0  0
   13.4422   -2.4982    1.5843 H   0  0  0  0  0  0  0  0  0  0  0  0
    8.7166   -4.6016    0.7754 H   0  0  0  0  0  0  0  0  0  0  0  0
    9.0559   -4.0494    2.4332 H   0  0  0  0  0  0  0  0  0  0  0  0
   10.3989   -4.3783    1.3123 H   0  0  0  0  0  0  0  0  0  0  0  0
    4.8689   -4.3197    1.4027 H   0  0  0  0  0  0  0  0  0  0  0  0
    3.4962   -3.8671    2.4415 H   0  0  0  0  0  0  0  0  0  0  0  0
    5.1613   -3.7221    3.0537 H   0  0  0  0  0  0  0  0  0  0  0  0
  1  2  2  0
  1  6  1  0
  1 10  1  0
  2  3  1  0
  2  9  1  0
  3  4  1  0
  4  5  1  0
  5  6  1  0
  6  7  1  0
  6  8  1  0
 10 11  2  0
 11 12  1  0
 12 13  2  0
 12 21  1  0
 13 14  1  0
 14 15  2  0
 15 16  1  0
 16 17  2  0
 16 20  1  0
 17 18  1  0
 18 19  1  0
  3 22  1  0
  3 23  1  0
  4 24  1  0
  4 25  1  0
  5 26  1  0
  5 27  1  0
  7 28  1  0
  7 29  1  0
  7 30  1  0
  8 31  1  0
  8 32  1  0
  8 33  1  0
  9 34  1  0
  9 35  1  0
  9 36  1  0
 10 37  1  0
 11 38  1  0
 13 39  1  0
 14 40  1  0
 15 41  1  0
 17 42  1  0
 18 43  1  0
 18 44  1  0
 19 45  1  0
 20 46  1  0
 20 47  1  0
 20 48  1  0
 21 49  1  0
 21 50  1  0
 21 51  1  0
M  END
