aspartame
     RDKit          3D

 39 39  0  0  1  0  0  0  0  0999 V2000
   -6.2625   -3.6996    0.1039 C   0  0  0  0  0  0  0  0  0  0  0  0
   -7.4664   -3.4694   -0.1410 O   0  0  0  0  0  0  0  0  0  0  0  0
   -5.3156   -2.5939    0.2149 C   0  0  0  0  0  0  0  0  0  0  0  0
   -4.6871   -2.5987    1.6098 C   0  0  0  0  0  0  0  0  0  0  0  0
   -3.7402   -1.4929    1.7208 C   0  0  0  0  0  0  0  0  0  0  0  0
   -2.5417   -1.6626    1.4087 O   0  0  0  0  0  0  0  0  0  0  0  0
   -4.1559   -0.2961    2.1572 N   0  0  0  0  0  0  0  0  0  0  0  0
   -3.5193    0.8786    1.7067 C   0  0  0  0  0  0  0  0  0  0  0  0
   -4.2162    1.3833    0.4417 C   0  0  0  0  0  0  0  0  0  0  0  0
   -3.5571    2.5997   -0.0247 C   0  0  0  0  0  0  0  0  0  0  0  0
   -2.4983    2.5163   -0.9215 C   0  0  0  0  0  0  0  0  0  0  0  0
   -1.8708    3.6744   -1.3655 C   0  0  0  0  0  0  0  0  0  0  0  0
   -2.3020    4.9158   -0.9128 C   0  0  0  0  0  0  0  0  0  0  0  0
   -3.3608    4.9992   -0.0161 C   0  0  0  0  0  0  0  0  0  0  0  0
   -3.9883    3.8412    0.4279 C   0  0  0  0  0  0  0  0  0  0  0  0
   -3.5950    1.9020    2.7453 C   0  0  0  0  0  0  0  0  0  0  0  0
   -2.5463    2.3813    3.2280 O   0  0  0  0  0  0  0  0  0  0  0  0
   -4.7975    2.3305    3.1843 O   0  0  0  0  0  0  0  0  0  0  0  0
   -4.8711    3.3259    4.1944 C   0  0  0  0  0  0  0  0  0  0  0  0
   -5.7354   -2.4455    2.6173 N   0  0  0  0  0  0  0  0  0  0  0  0
   -5.8377   -4.9708    0.2659 O   0  0  0  0  0  0  0  0  0  0  0  0
   -5.8381   -1.6507    0.0551 H   0  0  0  0  0  0  0  0  0  0  0  0
   -4.5340   -2.7081   -0.5362 H   0  0  0  0  0  0  0  0  0  0  0  0
   -4.1646   -3.5419    1.7697 H   0  0  0  0  0  0  0  0  0  0  0  0
   -4.8948   -0.2379    2.7830 H   0  0  0  0  0  0  0  0  0  0  0  0
   -2.4742    0.6631    1.4844 H   0  0  0  0  0  0  0  0  0  0  0  0
   -5.2614    1.5988    0.6640 H   0  0  0  0  0  0  0  0  0  0  0  0
   -4.1598    0.6193   -0.3337 H   0  0  0  0  0  0  0  0  0  0  0  0
   -2.1819    1.6053   -1.2537 H   0  0  0  0  0  0  0  0  0  0  0  0
   -1.0938    3.6132   -2.0236 H   0  0  0  0  0  0  0  0  0  0  0  0
   -1.8415    5.7656   -1.2387 H   0  0  0  0  0  0  0  0  0  0  0  0
   -3.6772    5.9102    0.3161 H   0  0  0  0  0  0  0  0  0  0  0  0
   -4.7653    3.9024    1.0860 H   0  0  0  0  0  0  0  0  0  0  0  0
   -5.9162    3.5413    4.4167 H   0  0  0  0  0  0  0  0  0  0  0  0
   -4.3746    2.9663    5.0957 H   0  0  0  0  0  0  0  0  0  0  0  0
   -4.3790    4.2340    3.8462 H   0  0  0  0  0  0  0  0  0  0  0  0
   -5.3156   -2.4487    3.5490 H   0  0  0  0  0  0  0  0  0  0  0  0
   -6.3982   -3.2196    2.5396 H   0  0  0  0  0  0  0  0  0  0  0  0
   -6.4471   -5.6490    0.6252 H   0  0  0  0  0  0  0  0  0  0  0  0
  1  2  2  0
  1  3  1  0
  1 21  1  0
  3  4  1  0
  4  5  1  0
  4 20  1  0
  5  6  2  0
  5  7  1  0
  7  8  1  0
  8  9  1  0
  8 16  1  0
  9 10  1  0
 10 11  2  0
 10 15  1  0
 11 12  1  0
 12 13  2  0
 13 14  1  0
 14 15  2  0
 16 17  2  0
 16 18  1  0
 18 19  1  0
  3 22  1  0
  3 23  1  0
  4 24  1  0
  7 25  1  0
  8 26  1  0
  9 27  1  0
  9 28  1  0
 11 29  1  0
 12 30  1  0
 13 31  1  0
 14 32  1  0
 15 33  1  0
 19 34  1  0
 19 35  1  0
 19 36  1  0
 20 37  1  0
 20 38  1  0
 21 39  1  0
M  END
