mk-0249
     RDKit          3D

 55 58  0  0  0  0  0  0  0  0999 V2000
   -6.8886    0.3839    5.7200 C   0  0  0  0  0  0  0  0  0  0  0  0
   -5.7977    1.0851    5.0033 C   0  0  0  0  0  0  0  0  0  0  0  0
   -5.5961    0.5636    3.7647 N   0  0  0  0  0  0  0  0  0  0  0  0
   -4.7066    1.0898    2.8795 C   0  0  0  0  0  0  0  0  0  0  0  0
   -4.5585    0.4720    1.6081 C   0  0  0  0  0  0  0  0  0  0  0  0
   -3.6712    1.0198    0.6640 C   0  0  0  0  0  0  0  0  0  0  0  0
   -2.9397    2.1756    0.9994 C   0  0  0  0  0  0  0  0  0  0  0  0
   -3.0257    2.8341    2.2645 C   0  0  0  0  0  0  0  0  0  0  0  0
   -3.9235    2.2364    3.2261 C   0  0  0  0  0  0  0  0  0  0  0  0
   -4.0734    2.6513    4.5765 C   0  0  0  0  0  0  0  0  0  0  0  0
   -3.2090    3.4244    5.0281 O   0  0  0  0  0  0  0  0  0  0  0  0
   -5.0386    2.1648    5.4492 N   0  0  0  0  0  0  0  0  0  0  0  0
   -5.1398    2.7975    6.7253 C   0  0  0  0  0  0  0  0  0  0  0  0
   -4.9971    4.2037    6.9252 C   0  0  0  0  0  0  0  0  0  0  0  0
   -5.0441    4.8057    8.1964 C   0  0  0  0  0  0  0  0  0  0  0  0
   -5.4113    4.0422    9.3071 C   0  0  0  0  0  0  0  0  0  0  0  0
   -5.5491    2.6583    9.1575 C   0  0  0  0  0  0  0  0  0  0  0  0
   -5.3058    2.0433    7.9114 C   0  0  0  0  0  0  0  0  0  0  0  0
   -5.6011    4.6358   10.5129 O   0  0  0  0  0  0  0  0  0  0  0  0
   -6.9561    5.0631   10.5748 C   0  0  0  0  0  0  0  0  0  0  0  0
   -7.0353    5.8841   11.8417 C   0  0  0  0  0  0  0  0  0  0  0  0
   -8.5106    6.1467   12.1357 C   0  0  0  0  0  0  0  0  0  0  0  0
   -8.6422    6.8902   13.3899 N   0  0  0  0  0  0  0  0  0  0  0  0
   -9.9893    7.4497   13.4431 C   0  0  0  0  0  0  0  0  0  0  0  0
  -10.1544    7.8458   14.9107 C   0  0  0  0  0  0  0  0  0  0  0  0
   -9.2580    6.8571   15.6598 C   0  0  0  0  0  0  0  0  0  0  0  0
   -8.6469    5.9968   14.5565 C   0  0  0  0  0  0  0  0  0  0  0  0
   -2.1432    4.0688    2.3971 C   0  0  0  0  0  0  0  0  0  0  0  0
   -2.5284    4.9619    1.4366 F   0  0  0  0  0  0  0  0  0  0  0  0
   -0.8392    3.6815    2.2319 F   0  0  0  0  0  0  0  0  0  0  0  0
   -2.0826    4.9059    3.4798 F   0  0  0  0  0  0  0  0  0  0  0  0
   -7.3646    1.0659    6.4334 H   0  0  0  0  0  0  0  0  0  0  0  0
   -7.6298    0.0346    5.0012 H   0  0  0  0  0  0  0  0  0  0  0  0
   -6.4928   -0.5136    6.1953 H   0  0  0  0  0  0  0  0  0  0  0  0
   -5.0751   -0.3805    1.3409 H   0  0  0  0  0  0  0  0  0  0  0  0
   -3.5658    0.5792   -0.2755 H   0  0  0  0  0  0  0  0  0  0  0  0
   -2.3243    2.5315    0.2685 H   0  0  0  0  0  0  0  0  0  0  0  0
   -4.8250    4.8315    6.1357 H   0  0  0  0  0  0  0  0  0  0  0  0
   -4.8556    5.8055    8.3122 H   0  0  0  0  0  0  0  0  0  0  0  0
   -5.8284    2.1006    9.9581 H   0  0  0  0  0  0  0  0  0  0  0  0
   -5.2767    1.0286    7.8405 H   0  0  0  0  0  0  0  0  0  0  0  0
   -7.6075    4.1938   10.6638 H   0  0  0  0  0  0  0  0  0  0  0  0
   -7.2660    5.6188    9.6897 H   0  0  0  0  0  0  0  0  0  0  0  0
   -6.5947    5.3235   12.6661 H   0  0  0  0  0  0  0  0  0  0  0  0
   -6.4671    6.8108   11.7605 H   0  0  0  0  0  0  0  0  0  0  0  0
   -9.0390    5.1970   12.2192 H   0  0  0  0  0  0  0  0  0  0  0  0
   -8.9455    6.7205   11.3174 H   0  0  0  0  0  0  0  0  0  0  0  0
  -10.7144    6.6757   13.1919 H   0  0  0  0  0  0  0  0  0  0  0  0
  -10.1480    8.2566   12.7276 H   0  0  0  0  0  0  0  0  0  0  0  0
  -11.1911    7.6971   15.2127 H   0  0  0  0  0  0  0  0  0  0  0  0
   -9.7805    8.8590   15.0580 H   0  0  0  0  0  0  0  0  0  0  0  0
   -9.8702    6.2326   16.3104 H   0  0  0  0  0  0  0  0  0  0  0  0
   -8.4195    7.3857   16.1133 H   0  0  0  0  0  0  0  0  0  0  0  0
   -9.2966    5.1443   14.3586 H   0  0  0  0  0  0  0  0  0  0  0  0
   -7.6646    5.5833   14.7850 H   0  0  0  0  0  0  0  0  0  0  0  0
  1  2  1  0
  2  3  2  0
  2 12  1  0
  3  4  1  0
  4  5  2  0
  4  9  1  0
  5  6  1  0
  6  7  2  0
  7  8  1  0
  8  9  2  0
  8 28  1  0
  9 10  1  0
 10 11  2  0
 10 12  1  0
 12 13  1  0
 13 14  2  0
 13 18  1  0
 14 15  1  0
 15 16  2  0
 16 17  1  0
 16 19  1  0
 17 18  2  0
 19 20  1  0
 20 21  1  0
 21 22  1  0
 22 23  1  0
 23 24  1  0
 23 27  1  0
 24 25  1  0
 25 26  1  0
 26 27  1  0
 28 29  1  0
 28 30  1  0
 28 31  1  0
  1 32  1  0
  1 33  1  0
  1 34  1  0
  5 35  1  0
  6 36  1  0
  7 37  1  0
 14 38  1  0
 15 39  1  0
 17 40  1  0
 18 41  1  0
 20 42  1  0
 20 43  1  0
 21 44  1  0
 21 45  1  0
 22 46  1  0
 22 47  1  0
 24 48  1  0
 24 49  1  0
 25 50  1  0
 25 51  1  0
 26 52  1  0
 26 53  1  0
 27 54  1  0
 27 55  1  0
M  END
